#======================================================================

# CRYSTAL DATA

#----------------------------------------------------------------------

data_VESTA_phase_1


_chemical_name_common                  '# Quantum Espresso PWSCF output snapsh'
_cell_length_a                         14.56495
_cell_length_b                         6.30430
_cell_length_c                         8.47459
_cell_angle_alpha                      90.00004
_cell_angle_beta                       121.77024
_cell_angle_gamma                      89.99999
_space_group_name_H-M_alt              'P 1'
_space_group_IT_number                 1

loop_
_space_group_symop_operation_xyz
   'x, y, z'

loop_
   _atom_site_label
   _atom_site_occupancy
   _atom_site_fract_x
   _atom_site_fract_y
   _atom_site_fract_z
   _atom_site_adp_type
   _atom_site_B_iso_or_equiv
   _atom_site_type_symbol
   C          1.0     0.258696      0.262332      0.090591     Biso  1.000000 C
   C          1.0     0.741305      0.262333      0.409407     Biso  1.000000 C
   C          1.0     0.758692      0.762336      0.090592     Biso  1.000000 C
   C          1.0     0.241307      0.762337      0.409413     Biso  1.000000 C
   C          1.0     0.741304      0.737668      0.909410     Biso  1.000000 C
   C          1.0     0.258696      0.737667      0.590595     Biso  1.000000 C
   C          1.0     0.241307      0.237664      0.909411     Biso  1.000000 C
   C          1.0     0.758693      0.237665      0.590589     Biso  1.000000 C
   Pb         1.0     0.000002      0.095386      0.250001     Biso  1.000000 Pb
   Pb         1.0     0.500000      0.595387      0.250000     Biso  1.000000 Pb
   Pb         1.0     0.000002      0.904613      0.750001     Biso  1.000000 Pb
   Pb         1.0     0.500000      0.404614      0.750000     Biso  1.000000 Pb
   O          1.0     0.076330      0.221094      0.025872     Biso  1.000000 O
   O          1.0     0.923670      0.221094      0.474128     Biso  1.000000 O
   O          1.0     0.576327      0.721095      0.025874     Biso  1.000000 O
   O          1.0     0.423672      0.721096      0.474130     Biso  1.000000 O
   O          1.0     0.923670      0.778906      0.974129     Biso  1.000000 O
   O          1.0     0.076329      0.778907      0.525875     Biso  1.000000 O
   O          1.0     0.423672      0.278905      0.974127     Biso  1.000000 O
   O          1.0     0.576327      0.278905      0.525873     Biso  1.000000 O
   O          1.0     0.000002      0.480800      0.250001     Biso  1.000000 O
   O          1.0     0.500000      0.980799      0.250001     Biso  1.000000 O
   O          1.0     0.000002      0.519200      0.750001     Biso  1.000000 O
   O          1.0     0.499999      0.019201      0.750002     Biso  1.000000 O
   H          1.0     0.977671      0.576526      0.143235     Biso  1.000000 H
   H          1.0     0.022328      0.576525      0.356767     Biso  1.000000 H
   H          1.0     0.477672      0.076524      0.143235     Biso  1.000000 H
   H          1.0     0.522327      0.076526      0.356765     Biso  1.000000 H
   H          1.0     0.022329      0.423474      0.856765     Biso  1.000000 H
   H          1.0     0.977671      0.423475      0.643234     Biso  1.000000 H
   H          1.0     0.522327      0.923476      0.856767     Biso  1.000000 H
   H          1.0     0.477673      0.923475      0.643236     Biso  1.000000 H
   N          1.0     0.180968      0.248983      0.133545     Biso  1.000000 N
   N          1.0     0.819032      0.248984      0.366454     Biso  1.000000 N
   N          1.0     0.680965      0.748985      0.133547     Biso  1.000000 N
   N          1.0     0.319034      0.748984      0.366458     Biso  1.000000 N
   N          1.0     0.819032      0.751017      0.866457     Biso  1.000000 N
   N          1.0     0.180968      0.751017      0.633547     Biso  1.000000 N
   N          1.0     0.319034      0.251016      0.866454     Biso  1.000000 N
   N          1.0     0.680965      0.251016      0.633543     Biso  1.000000 N
   N          1.0     0.228843      0.266919      0.319251     Biso  1.000000 N
   N          1.0     0.771157      0.266920      0.180748     Biso  1.000000 N
   N          1.0     0.728842      0.766918      0.319253     Biso  1.000000 N
   N          1.0     0.271158      0.766917      0.180751     Biso  1.000000 N
   N          1.0     0.771156      0.733081      0.680751     Biso  1.000000 N
   N          1.0     0.228842      0.733081      0.819253     Biso  1.000000 N
   N          1.0     0.271157      0.233082      0.680748     Biso  1.000000 N
   N          1.0     0.728843      0.233083      0.819250     Biso  1.000000 N
   N          1.0     0.332528      0.295697      0.385283     Biso  1.000000 N
   N          1.0     0.667471      0.295698      0.114717     Biso  1.000000 N
   N          1.0     0.832527      0.795696      0.385285     Biso  1.000000 N
   N          1.0     0.167472      0.795696      0.114722     Biso  1.000000 N
   N          1.0     0.667471      0.704303      0.614718     Biso  1.000000 N
   N          1.0     0.332528      0.704303      0.885286     Biso  1.000000 N
   N          1.0     0.167473      0.204304      0.614718     Biso  1.000000 N
   N          1.0     0.832528      0.204305      0.885281     Biso  1.000000 N
   N          1.0     0.353185      0.296929      0.248403     Biso  1.000000 N
   N          1.0     0.646815      0.296929      0.251596     Biso  1.000000 N
   N          1.0     0.853182      0.796931      0.248402     Biso  1.000000 N
   N          1.0     0.146817      0.796931      0.251602     Biso  1.000000 N
   N          1.0     0.646815      0.703071      0.751599     Biso  1.000000 N
   N          1.0     0.353185      0.703070      0.748406     Biso  1.000000 N
   N          1.0     0.146817      0.203069      0.751599     Biso  1.000000 N
   N          1.0     0.853182      0.203069      0.748399     Biso  1.000000 N
