#======================================================================

# CRYSTAL DATA

#----------------------------------------------------------------------

data_VESTA_phase_1


_chemical_name_common                  '# Quantum Espresso PWSCF output snapsh'
_cell_length_a                         14.13460
_cell_length_b                         5.87425
_cell_length_c                         8.25693
_cell_angle_alpha                      89.99995
_cell_angle_beta                       121.24577
_cell_angle_gamma                      90.00002
_space_group_name_H-M_alt              'P 1'
_space_group_IT_number                 1

loop_
_space_group_symop_operation_xyz
   'x, y, z'

loop_
   _atom_site_label
   _atom_site_occupancy
   _atom_site_fract_x
   _atom_site_fract_y
   _atom_site_fract_z
   _atom_site_adp_type
   _atom_site_B_iso_or_equiv
   _atom_site_type_symbol
   C          1.0     0.258784      0.260933      0.092328     Biso  1.000000 C
   C          1.0     0.741211      0.260937      0.407676     Biso  1.000000 C
   C          1.0     0.758783      0.760933      0.092328     Biso  1.000000 C
   C          1.0     0.241214      0.760941      0.407677     Biso  1.000000 C
   C          1.0     0.741211      0.739062      0.907673     Biso  1.000000 C
   C          1.0     0.258784      0.739070      0.592324     Biso  1.000000 C
   C          1.0     0.241213      0.239061      0.907674     Biso  1.000000 C
   C          1.0     0.758782      0.239066      0.592327     Biso  1.000000 C
   Pb         1.0    -0.000004      0.086640      0.250000     Biso  1.000000 Pb
   Pb         1.0     0.499996      0.586639      0.250000     Biso  1.000000 Pb
   Pb         1.0    -0.000004      0.913360      0.750000     Biso  1.000000 Pb
   Pb         1.0     0.499996      0.413361      0.749999     Biso  1.000000 Pb
   O          1.0     0.072127      0.232288      0.028515     Biso  1.000000 O
   O          1.0     0.927868      0.232285      0.471490     Biso  1.000000 O
   O          1.0     0.572127      0.732289      0.028515     Biso  1.000000 O
   O          1.0     0.427869      0.732286      0.471489     Biso  1.000000 O
   O          1.0     0.927868      0.767716      0.971490     Biso  1.000000 O
   O          1.0     0.072128      0.767713      0.528515     Biso  1.000000 O
   O          1.0     0.427869      0.267715      0.971489     Biso  1.000000 O
   O          1.0     0.572126      0.267711      0.528515     Biso  1.000000 O
   O          1.0     0.000009      0.478813      0.250007     Biso  1.000000 O
   O          1.0     0.500006      0.978812      0.250007     Biso  1.000000 O
   O          1.0     0.000008      0.521188      0.750008     Biso  1.000000 O
   O          1.0     0.500009      0.021189      0.750007     Biso  1.000000 O
   H          1.0     0.977721      0.578751      0.139336     Biso  1.000000 H
   H          1.0     0.022283      0.578746      0.360678     Biso  1.000000 H
   H          1.0     0.477722      0.078751      0.139336     Biso  1.000000 H
   H          1.0     0.522282      0.078745      0.360678     Biso  1.000000 H
   H          1.0     0.022283      0.421254      0.860678     Biso  1.000000 H
   H          1.0     0.977721      0.421250      0.639335     Biso  1.000000 H
   H          1.0     0.522282      0.921255      0.860677     Biso  1.000000 H
   H          1.0     0.477722      0.921250      0.639335     Biso  1.000000 H
   N          1.0     0.179087      0.256155      0.136909     Biso  1.000000 N
   N          1.0     0.820909      0.256152      0.363095     Biso  1.000000 N
   N          1.0     0.679085      0.756155      0.136909     Biso  1.000000 N
   N          1.0     0.320911      0.756154      0.363093     Biso  1.000000 N
   N          1.0     0.820909      0.743848      0.863094     Biso  1.000000 N
   N          1.0     0.179086      0.743846      0.636908     Biso  1.000000 N
   N          1.0     0.320910      0.243847      0.863094     Biso  1.000000 N
   N          1.0     0.679085      0.243844      0.636910     Biso  1.000000 N
   N          1.0     0.227580      0.267577      0.325854     Biso  1.000000 N
   N          1.0     0.772417      0.267575      0.174150     Biso  1.000000 N
   N          1.0     0.727579      0.767575      0.325855     Biso  1.000000 N
   N          1.0     0.272418      0.767575      0.174148     Biso  1.000000 N
   N          1.0     0.772417      0.732425      0.674150     Biso  1.000000 N
   N          1.0     0.227580      0.732424      0.825854     Biso  1.000000 N
   N          1.0     0.272418      0.232426      0.674148     Biso  1.000000 N
   N          1.0     0.727579      0.232425      0.825855     Biso  1.000000 N
   N          1.0     0.334509      0.284128      0.393269     Biso  1.000000 N
   N          1.0     0.665488      0.284135      0.106733     Biso  1.000000 N
   N          1.0     0.834508      0.784124      0.393270     Biso  1.000000 N
   N          1.0     0.165489      0.784136      0.106732     Biso  1.000000 N
   N          1.0     0.665488      0.715864      0.606733     Biso  1.000000 N
   N          1.0     0.334509      0.715875      0.893270     Biso  1.000000 N
   N          1.0     0.165489      0.215865      0.606732     Biso  1.000000 N
   N          1.0     0.834508      0.215875      0.893270     Biso  1.000000 N
   N          1.0     0.355657      0.284158      0.253219     Biso  1.000000 N
   N          1.0     0.644340      0.284171      0.246782     Biso  1.000000 N
   N          1.0     0.855655      0.784157      0.253218     Biso  1.000000 N
   N          1.0     0.144341      0.784174      0.246782     Biso  1.000000 N
   N          1.0     0.644340      0.715828      0.746782     Biso  1.000000 N
   N          1.0     0.355657      0.715845      0.753219     Biso  1.000000 N
   N          1.0     0.144341      0.215828      0.746783     Biso  1.000000 N
   N          1.0     0.855656      0.215843      0.753219     Biso  1.000000 N
