#======================================================================

# CRYSTAL DATA

#----------------------------------------------------------------------

data_VESTA_phase_1


_chemical_name_common                  '# Quantum Espresso PWSCF output snapsh'
_cell_length_a                         14.01328
_cell_length_b                         5.78119
_cell_length_c                         8.20519
_cell_angle_alpha                      89.99999
_cell_angle_beta                       121.16746
_cell_angle_gamma                      89.99998
_space_group_name_H-M_alt              'P 1'
_space_group_IT_number                 1

loop_
_space_group_symop_operation_xyz
   'x, y, z'

loop_
   _atom_site_label
   _atom_site_occupancy
   _atom_site_fract_x
   _atom_site_fract_y
   _atom_site_fract_z
   _atom_site_adp_type
   _atom_site_B_iso_or_equiv
   _atom_site_type_symbol
   C          1.0     0.258795      0.260472      0.092721     Biso  1.000000 C
   C          1.0     0.741202      0.260474      0.407286     Biso  1.000000 C
   C          1.0     0.758795      0.760471      0.092720     Biso  1.000000 C
   C          1.0     0.241202      0.760476      0.407284     Biso  1.000000 C
   C          1.0     0.741203      0.739525      0.907285     Biso  1.000000 C
   C          1.0     0.258795      0.739530      0.592718     Biso  1.000000 C
   C          1.0     0.241202      0.239526      0.907281     Biso  1.000000 C
   C          1.0     0.758795      0.239528      0.592719     Biso  1.000000 C
   Pb         1.0     0.999998      0.084661      0.250001     Biso  1.000000 Pb
   Pb         1.0     0.499998      0.584661      0.250001     Biso  1.000000 Pb
   Pb         1.0    -0.000002      0.915339      0.750001     Biso  1.000000 Pb
   Pb         1.0     0.499998      0.415339      0.750001     Biso  1.000000 Pb
   O          1.0     0.070887      0.234715      0.028982     Biso  1.000000 O
   O          1.0     0.929109      0.234716      0.471021     Biso  1.000000 O
   O          1.0     0.570887      0.734715      0.028983     Biso  1.000000 O
   O          1.0     0.429110      0.734716      0.471021     Biso  1.000000 O
   O          1.0     0.929110      0.765285      0.971022     Biso  1.000000 O
   O          1.0     0.070887      0.765286      0.528983     Biso  1.000000 O
   O          1.0     0.429110      0.265285      0.971021     Biso  1.000000 O
   O          1.0     0.570888      0.265286      0.528983     Biso  1.000000 O
   O          1.0     0.000003      0.478451      0.250003     Biso  1.000000 O
   O          1.0     0.500001      0.978450      0.250003     Biso  1.000000 O
   O          1.0     0.000002      0.521550      0.750004     Biso  1.000000 O
   O          1.0     0.500002      0.021551      0.750004     Biso  1.000000 O
   H          1.0     0.977968      0.579121      0.138405     Biso  1.000000 H
   H          1.0     0.022030      0.579121      0.361600     Biso  1.000000 H
   H          1.0     0.477968      0.079121      0.138405     Biso  1.000000 H
   H          1.0     0.522030      0.079121      0.361600     Biso  1.000000 H
   H          1.0     0.022030      0.420879      0.861600     Biso  1.000000 H
   H          1.0     0.977967      0.420878      0.638405     Biso  1.000000 H
   H          1.0     0.522031      0.920879      0.861600     Biso  1.000000 H
   H          1.0     0.477968      0.920879      0.638405     Biso  1.000000 H
   N          1.0     0.178543      0.257619      0.137629     Biso  1.000000 N
   N          1.0     0.821455      0.257618      0.362375     Biso  1.000000 N
   N          1.0     0.678543      0.757619      0.137631     Biso  1.000000 N
   N          1.0     0.321454      0.757619      0.362374     Biso  1.000000 N
   N          1.0     0.821453      0.742382      0.862374     Biso  1.000000 N
   N          1.0     0.178542      0.742383      0.637628     Biso  1.000000 N
   N          1.0     0.321453      0.242381      0.862374     Biso  1.000000 N
   N          1.0     0.678542      0.242381      0.637629     Biso  1.000000 N
   N          1.0     0.227188      0.267537      0.327324     Biso  1.000000 N
   N          1.0     0.772808      0.267534      0.172679     Biso  1.000000 N
   N          1.0     0.727188      0.767535      0.327325     Biso  1.000000 N
   N          1.0     0.272809      0.767534      0.172678     Biso  1.000000 N
   N          1.0     0.772808      0.732466      0.672679     Biso  1.000000 N
   N          1.0     0.227189      0.732464      0.827325     Biso  1.000000 N
   N          1.0     0.272808      0.232467      0.672678     Biso  1.000000 N
   N          1.0     0.727189      0.232465      0.827326     Biso  1.000000 N
   N          1.0     0.335027      0.281334      0.395178     Biso  1.000000 N
   N          1.0     0.664970      0.281334      0.104826     Biso  1.000000 N
   N          1.0     0.835027      0.781332      0.395179     Biso  1.000000 N
   N          1.0     0.164970      0.781335      0.104825     Biso  1.000000 N
   N          1.0     0.664970      0.718665      0.604826     Biso  1.000000 N
   N          1.0     0.335027      0.718668      0.895177     Biso  1.000000 N
   N          1.0     0.164970      0.218667      0.604825     Biso  1.000000 N
   N          1.0     0.835027      0.218667      0.895178     Biso  1.000000 N
   N          1.0     0.356309      0.281081      0.254422     Biso  1.000000 N
   N          1.0     0.643687      0.281085      0.245579     Biso  1.000000 N
   N          1.0     0.856310      0.781080      0.254425     Biso  1.000000 N
   N          1.0     0.143688      0.781086      0.245579     Biso  1.000000 N
   N          1.0     0.643687      0.718915      0.745580     Biso  1.000000 N
   N          1.0     0.356310      0.718921      0.754423     Biso  1.000000 N
   N          1.0     0.143687      0.218916      0.745579     Biso  1.000000 N
   N          1.0     0.856310      0.218920      0.754424     Biso  1.000000 N
