#======================================================================

# CRYSTAL DATA

#----------------------------------------------------------------------

data_VESTA_phase_1


_chemical_name_common                  '# Quantum Espresso PWSCF output snapsh'
_cell_length_a                         13.97522
_cell_length_b                         5.75361
_cell_length_c                         8.18954
_cell_angle_alpha                      90.00001
_cell_angle_beta                       121.14717
_cell_angle_gamma                      89.99998
_space_group_name_H-M_alt              'P 1'
_space_group_IT_number                 1

loop_
_space_group_symop_operation_xyz
   'x, y, z'

loop_
   _atom_site_label
   _atom_site_occupancy
   _atom_site_fract_x
   _atom_site_fract_y
   _atom_site_fract_z
   _atom_site_adp_type
   _atom_site_B_iso_or_equiv
   _atom_site_type_symbol
   C          1.0     0.258794      0.260314      0.092832     Biso  1.000000 C
   C          1.0     0.741195      0.260316      0.407164     Biso  1.000000 C
   C          1.0     0.758793      0.760313      0.092830     Biso  1.000000 C
   C          1.0     0.241196      0.760318      0.407164     Biso  1.000000 C
   C          1.0     0.741196      0.739684      0.907169     Biso  1.000000 C
   C          1.0     0.258794      0.739687      0.592834     Biso  1.000000 C
   C          1.0     0.241196      0.239684      0.907165     Biso  1.000000 C
   C          1.0     0.758794      0.239686      0.592834     Biso  1.000000 C
   Pb         1.0     0.999994      0.084067      0.249999     Biso  1.000000 Pb
   Pb         1.0     0.499994      0.584067      0.249999     Biso  1.000000 Pb
   Pb         1.0     0.999995      0.915933      0.749999     Biso  1.000000 Pb
   Pb         1.0     0.499994      0.415934      0.749999     Biso  1.000000 Pb
   O          1.0     0.070488      0.235422      0.029104     Biso  1.000000 O
   O          1.0     0.929501      0.235423      0.470894     Biso  1.000000 O
   O          1.0     0.570489      0.735423      0.029105     Biso  1.000000 O
   O          1.0     0.429502      0.735423      0.470894     Biso  1.000000 O
   O          1.0     0.929501      0.764577      0.970895     Biso  1.000000 O
   O          1.0     0.070489      0.764579      0.529105     Biso  1.000000 O
   O          1.0     0.429502      0.264577      0.970895     Biso  1.000000 O
   O          1.0     0.570489      0.264578      0.529105     Biso  1.000000 O
   O          1.0    -0.000000      0.478355      0.250001     Biso  1.000000 O
   O          1.0     0.499998      0.978355      0.250000     Biso  1.000000 O
   O          1.0    -0.000003      0.521646      0.750001     Biso  1.000000 O
   O          1.0     0.499996      0.021646      0.750000     Biso  1.000000 O
   H          1.0     0.978056      0.579231      0.138124     Biso  1.000000 H
   H          1.0     0.021935      0.579232      0.361876     Biso  1.000000 H
   H          1.0     0.478056      0.079231      0.138123     Biso  1.000000 H
   H          1.0     0.521934      0.079231      0.361876     Biso  1.000000 H
   H          1.0     0.021934      0.420769      0.861876     Biso  1.000000 H
   H          1.0     0.978056      0.420769      0.638124     Biso  1.000000 H
   H          1.0     0.521935      0.920770      0.861876     Biso  1.000000 H
   H          1.0     0.478056      0.920770      0.638123     Biso  1.000000 H
   N          1.0     0.178367      0.258026      0.137837     Biso  1.000000 N
   N          1.0     0.821624      0.258025      0.362163     Biso  1.000000 N
   N          1.0     0.678367      0.758026      0.137838     Biso  1.000000 N
   N          1.0     0.321623      0.758026      0.362162     Biso  1.000000 N
   N          1.0     0.821623      0.741974      0.862161     Biso  1.000000 N
   N          1.0     0.178366      0.741976      0.637836     Biso  1.000000 N
   N          1.0     0.321623      0.241975      0.862161     Biso  1.000000 N
   N          1.0     0.678366      0.241975      0.637836     Biso  1.000000 N
   N          1.0     0.227057      0.267502      0.327757     Biso  1.000000 N
   N          1.0     0.772933      0.267500      0.172242     Biso  1.000000 N
   N          1.0     0.727057      0.767501      0.327757     Biso  1.000000 N
   N          1.0     0.272934      0.767500      0.172242     Biso  1.000000 N
   N          1.0     0.772933      0.732500      0.672242     Biso  1.000000 N
   N          1.0     0.227057      0.732499      0.827757     Biso  1.000000 N
   N          1.0     0.272933      0.232501      0.672242     Biso  1.000000 N
   N          1.0     0.727057      0.232499      0.827757     Biso  1.000000 N
   N          1.0     0.335182      0.280495      0.395754     Biso  1.000000 N
   N          1.0     0.664808      0.280495      0.104243     Biso  1.000000 N
   N          1.0     0.835182      0.780493      0.395755     Biso  1.000000 N
   N          1.0     0.164808      0.780497      0.104243     Biso  1.000000 N
   N          1.0     0.664808      0.719505      0.604243     Biso  1.000000 N
   N          1.0     0.335182      0.719506      0.895754     Biso  1.000000 N
   N          1.0     0.164808      0.219505      0.604243     Biso  1.000000 N
   N          1.0     0.835182      0.219506      0.895755     Biso  1.000000 N
   N          1.0     0.356510      0.280154      0.254794     Biso  1.000000 N
   N          1.0     0.643480      0.280157      0.245204     Biso  1.000000 N
   N          1.0     0.856511      0.780152      0.254796     Biso  1.000000 N
   N          1.0     0.143481      0.780160      0.245204     Biso  1.000000 N
   N          1.0     0.643479      0.719843      0.745203     Biso  1.000000 N
   N          1.0     0.356510      0.719846      0.754794     Biso  1.000000 N
   N          1.0     0.143480      0.219843      0.745203     Biso  1.000000 N
   N          1.0     0.856509      0.219846      0.754794     Biso  1.000000 N
