#======================================================================

# CRYSTAL DATA

#----------------------------------------------------------------------

data_VESTA_phase_1


_chemical_name_common                  '# Quantum Espresso PWSCF output snapsh'
_cell_length_a                         13.93834
_cell_length_b                         5.72730
_cell_length_c                         8.17465
_cell_angle_alpha                      90
_cell_angle_beta                       121.12962
_cell_angle_gamma                      90.00002
_space_group_name_H-M_alt              'P 1'
_space_group_IT_number                 1

loop_
_space_group_symop_operation_xyz
   'x, y, z'

loop_
   _atom_site_label
   _atom_site_occupancy
   _atom_site_fract_x
   _atom_site_fract_y
   _atom_site_fract_z
   _atom_site_adp_type
   _atom_site_B_iso_or_equiv
   _atom_site_type_symbol
   C          1.0     0.258795      0.260162      0.092938     Biso  1.000000 C
   C          1.0     0.741194      0.260164      0.407054     Biso  1.000000 C
   C          1.0     0.758796      0.760162      0.092944     Biso  1.000000 C
   C          1.0     0.241194      0.760165      0.407055     Biso  1.000000 C
   C          1.0     0.741194      0.739836      0.907053     Biso  1.000000 C
   C          1.0     0.258795      0.739839      0.592942     Biso  1.000000 C
   C          1.0     0.241194      0.239837      0.907059     Biso  1.000000 C
   C          1.0     0.758795      0.239838      0.592943     Biso  1.000000 C
   Pb         1.0     0.999994      0.083491      0.249998     Biso  1.000000 Pb
   Pb         1.0     0.499995      0.583491      0.249998     Biso  1.000000 Pb
   Pb         1.0     0.999995      0.916510      0.749998     Biso  1.000000 Pb
   Pb         1.0     0.499994      0.416510      0.749998     Biso  1.000000 Pb
   O          1.0     0.070103      0.236090      0.029216     Biso  1.000000 O
   O          1.0     0.929887      0.236090      0.470782     Biso  1.000000 O
   O          1.0     0.570103      0.736090      0.029216     Biso  1.000000 O
   O          1.0     0.429887      0.736089      0.470781     Biso  1.000000 O
   O          1.0     0.929887      0.763910      0.970781     Biso  1.000000 O
   O          1.0     0.070103      0.763912      0.529216     Biso  1.000000 O
   O          1.0     0.429886      0.263910      0.970781     Biso  1.000000 O
   O          1.0     0.570103      0.263911      0.529216     Biso  1.000000 O
   O          1.0    -0.000001      0.478276      0.250001     Biso  1.000000 O
   O          1.0     0.499997      0.978276      0.250000     Biso  1.000000 O
   O          1.0     0.999997      0.521724      0.749999     Biso  1.000000 O
   O          1.0     0.499995      0.021724      0.749999     Biso  1.000000 O
   H          1.0     0.978155      0.579346      0.137862     Biso  1.000000 H
   H          1.0     0.021836      0.579347      0.362137     Biso  1.000000 H
   H          1.0     0.478155      0.079347      0.137861     Biso  1.000000 H
   H          1.0     0.521835      0.079347      0.362136     Biso  1.000000 H
   H          1.0     0.021836      0.420654      0.862137     Biso  1.000000 H
   H          1.0     0.978155      0.420654      0.637861     Biso  1.000000 H
   H          1.0     0.521835      0.920654      0.862136     Biso  1.000000 H
   H          1.0     0.478155      0.920654      0.637861     Biso  1.000000 H
   N          1.0     0.178197      0.258410      0.138030     Biso  1.000000 N
   N          1.0     0.821792      0.258409      0.361967     Biso  1.000000 N
   N          1.0     0.678198      0.758409      0.138030     Biso  1.000000 N
   N          1.0     0.321793      0.758409      0.361967     Biso  1.000000 N
   N          1.0     0.821792      0.741591      0.861968     Biso  1.000000 N
   N          1.0     0.178198      0.741592      0.638030     Biso  1.000000 N
   N          1.0     0.321793      0.241591      0.861967     Biso  1.000000 N
   N          1.0     0.678198      0.241592      0.638030     Biso  1.000000 N
   N          1.0     0.226930      0.267470      0.328164     Biso  1.000000 N
   N          1.0     0.773060      0.267468      0.171834     Biso  1.000000 N
   N          1.0     0.726930      0.767469      0.328164     Biso  1.000000 N
   N          1.0     0.273060      0.767468      0.171834     Biso  1.000000 N
   N          1.0     0.773060      0.732532      0.671834     Biso  1.000000 N
   N          1.0     0.226930      0.732531      0.828164     Biso  1.000000 N
   N          1.0     0.273060      0.232532      0.671833     Biso  1.000000 N
   N          1.0     0.726930      0.232531      0.828163     Biso  1.000000 N
   N          1.0     0.335334      0.279701      0.396304     Biso  1.000000 N
   N          1.0     0.664657      0.279702      0.103693     Biso  1.000000 N
   N          1.0     0.835334      0.779700      0.396304     Biso  1.000000 N
   N          1.0     0.164657      0.779703      0.103693     Biso  1.000000 N
   N          1.0     0.664656      0.720299      0.603693     Biso  1.000000 N
   N          1.0     0.335333      0.720299      0.896304     Biso  1.000000 N
   N          1.0     0.164656      0.220299      0.603693     Biso  1.000000 N
   N          1.0     0.835333      0.220300      0.896303     Biso  1.000000 N
   N          1.0     0.356705      0.279276      0.255150     Biso  1.000000 N
   N          1.0     0.643285      0.279279      0.244847     Biso  1.000000 N
   N          1.0     0.856705      0.779274      0.255149     Biso  1.000000 N
   N          1.0     0.143285      0.779281      0.244847     Biso  1.000000 N
   N          1.0     0.643285      0.720722      0.744847     Biso  1.000000 N
   N          1.0     0.356705      0.720724      0.755150     Biso  1.000000 N
   N          1.0     0.143284      0.220721      0.744846     Biso  1.000000 N
   N          1.0     0.856704      0.220724      0.755149     Biso  1.000000 N
