#======================================================================

# CRYSTAL DATA

#----------------------------------------------------------------------

data_VESTA_phase_1


_chemical_name_common                  '# Quantum Espresso PWSCF output snapsh'
_cell_length_a                         13.86779
_cell_length_b                         5.67823
_cell_length_c                         8.14665
_cell_angle_alpha                      89.99995
_cell_angle_beta                       121.10051
_cell_angle_gamma                      90.00004
_space_group_name_H-M_alt              'P 1'
_space_group_IT_number                 1

loop_
_space_group_symop_operation_xyz
   'x, y, z'

loop_
   _atom_site_label
   _atom_site_occupancy
   _atom_site_fract_x
   _atom_site_fract_y
   _atom_site_fract_z
   _atom_site_adp_type
   _atom_site_B_iso_or_equiv
   _atom_site_type_symbol
   C          1.0     0.258799      0.259858      0.093144     Biso  1.000000 C
   C          1.0     0.741195      0.259861      0.406853     Biso  1.000000 C
   C          1.0     0.758799      0.759859      0.093150     Biso  1.000000 C
   C          1.0     0.241194      0.759861      0.406853     Biso  1.000000 C
   C          1.0     0.741195      0.740138      0.906852     Biso  1.000000 C
   C          1.0     0.258799      0.740142      0.593147     Biso  1.000000 C
   C          1.0     0.241195      0.240139      0.906858     Biso  1.000000 C
   C          1.0     0.758798      0.240141      0.593148     Biso  1.000000 C
   Pb         1.0    -0.000000      0.082399      0.250000     Biso  1.000000 Pb
   Pb         1.0     0.499997      0.582399      0.250000     Biso  1.000000 Pb
   Pb         1.0    -0.000000      0.917601      0.750000     Biso  1.000000 Pb
   Pb         1.0     0.499996      0.417601      0.750000     Biso  1.000000 Pb
   O          1.0     0.069361      0.237313      0.029414     Biso  1.000000 O
   O          1.0     0.930633      0.237314      0.470587     Biso  1.000000 O
   O          1.0     0.569361      0.737313      0.029414     Biso  1.000000 O
   O          1.0     0.430633      0.737313      0.470587     Biso  1.000000 O
   O          1.0     0.930632      0.762686      0.970587     Biso  1.000000 O
   O          1.0     0.069362      0.762687      0.529415     Biso  1.000000 O
   O          1.0     0.430632      0.262686      0.970587     Biso  1.000000 O
   O          1.0     0.569361      0.262686      0.529415     Biso  1.000000 O
   O          1.0     0.000003      0.478150      0.250003     Biso  1.000000 O
   O          1.0     0.499998      0.978150      0.250002     Biso  1.000000 O
   O          1.0     0.000002      0.521849      0.750002     Biso  1.000000 O
   O          1.0     0.499998      0.021849      0.750001     Biso  1.000000 O
   H          1.0     0.978355      0.579572      0.137372     Biso  1.000000 H
   H          1.0     0.021640      0.579572      0.362630     Biso  1.000000 H
   H          1.0     0.478355      0.079572      0.137372     Biso  1.000000 H
   H          1.0     0.521639      0.079572      0.362630     Biso  1.000000 H
   H          1.0     0.021640      0.420427      0.862630     Biso  1.000000 H
   H          1.0     0.978355      0.420428      0.637372     Biso  1.000000 H
   H          1.0     0.521639      0.920428      0.862630     Biso  1.000000 H
   H          1.0     0.478354      0.920428      0.637372     Biso  1.000000 H
   N          1.0     0.177873      0.259091      0.138388     Biso  1.000000 N
   N          1.0     0.822121      0.259091      0.361614     Biso  1.000000 N
   N          1.0     0.677874      0.759091      0.138388     Biso  1.000000 N
   N          1.0     0.322121      0.759091      0.361614     Biso  1.000000 N
   N          1.0     0.822120      0.740909      0.861615     Biso  1.000000 N
   N          1.0     0.177873      0.740909      0.638388     Biso  1.000000 N
   N          1.0     0.322120      0.240908      0.861613     Biso  1.000000 N
   N          1.0     0.677874      0.240909      0.638388     Biso  1.000000 N
   N          1.0     0.226683      0.267393      0.328921     Biso  1.000000 N
   N          1.0     0.773311      0.267391      0.171081     Biso  1.000000 N
   N          1.0     0.726683      0.767392      0.328921     Biso  1.000000 N
   N          1.0     0.273312      0.767391      0.171080     Biso  1.000000 N
   N          1.0     0.773311      0.732608      0.671081     Biso  1.000000 N
   N          1.0     0.226683      0.732607      0.828921     Biso  1.000000 N
   N          1.0     0.273311      0.232608      0.671080     Biso  1.000000 N
   N          1.0     0.726683      0.232607      0.828921     Biso  1.000000 N
   N          1.0     0.335622      0.278230      0.397342     Biso  1.000000 N
   N          1.0     0.664372      0.278231      0.102658     Biso  1.000000 N
   N          1.0     0.835622      0.778229      0.397342     Biso  1.000000 N
   N          1.0     0.164373      0.778232      0.102658     Biso  1.000000 N
   N          1.0     0.664373      0.721769      0.602659     Biso  1.000000 N
   N          1.0     0.335621      0.721769      0.897342     Biso  1.000000 N
   N          1.0     0.164373      0.221768      0.602658     Biso  1.000000 N
   N          1.0     0.835621      0.221770      0.897342     Biso  1.000000 N
   N          1.0     0.357077      0.277644      0.255832     Biso  1.000000 N
   N          1.0     0.642917      0.277646      0.244170     Biso  1.000000 N
   N          1.0     0.857077      0.777642      0.255831     Biso  1.000000 N
   N          1.0     0.142917      0.777648      0.244169     Biso  1.000000 N
   N          1.0     0.642917      0.722353      0.744170     Biso  1.000000 N
   N          1.0     0.357077      0.722356      0.755831     Biso  1.000000 N
   N          1.0     0.142916      0.222352      0.744169     Biso  1.000000 N
   N          1.0     0.857077      0.222356      0.755831     Biso  1.000000 N
