#======================================================================

# CRYSTAL DATA

#----------------------------------------------------------------------

data_VESTA_phase_1


_chemical_name_common                  '# Quantum Espresso PWSCF output snapsh'
_cell_length_a                         13.76966
_cell_length_b                         5.61170
_cell_length_c                         8.10851
_cell_angle_alpha                      89.99992
_cell_angle_beta                       121.06945
_cell_angle_gamma                      89.99999
_space_group_name_H-M_alt              'P 1'
_space_group_IT_number                 1

loop_
_space_group_symop_operation_xyz
   'x, y, z'

loop_
   _atom_site_label
   _atom_site_occupancy
   _atom_site_fract_x
   _atom_site_fract_y
   _atom_site_fract_z
   _atom_site_adp_type
   _atom_site_B_iso_or_equiv
   _atom_site_type_symbol
   C          1.0     0.258803      0.259413      0.093421     Biso  1.000000 C
   C          1.0     0.741198      0.259412      0.406583     Biso  1.000000 C
   C          1.0     0.758803      0.759409      0.093422     Biso  1.000000 C
   C          1.0     0.241198      0.759415      0.406585     Biso  1.000000 C
   C          1.0     0.741198      0.740587      0.906585     Biso  1.000000 C
   C          1.0     0.258802      0.740587      0.593422     Biso  1.000000 C
   C          1.0     0.241198      0.240584      0.906586     Biso  1.000000 C
   C          1.0     0.758803      0.240589      0.593424     Biso  1.000000 C
   Pb         1.0    -0.000001      0.080865      0.250004     Biso  1.000000 Pb
   Pb         1.0     0.500001      0.580865      0.250004     Biso  1.000000 Pb
   Pb         1.0     0.999999      0.919134      0.750004     Biso  1.000000 Pb
   Pb         1.0     0.500000      0.419134      0.750004     Biso  1.000000 Pb
   O          1.0     0.068319      0.238916      0.029665     Biso  1.000000 O
   O          1.0     0.931682      0.238922      0.470345     Biso  1.000000 O
   O          1.0     0.568320      0.738920      0.029664     Biso  1.000000 O
   O          1.0     0.431682      0.738918      0.470343     Biso  1.000000 O
   O          1.0     0.931681      0.761078      0.970345     Biso  1.000000 O
   O          1.0     0.068319      0.761082      0.529665     Biso  1.000000 O
   O          1.0     0.431682      0.261082      0.970344     Biso  1.000000 O
   O          1.0     0.568319      0.261078      0.529664     Biso  1.000000 O
   O          1.0     0.000009      0.478037      0.250009     Biso  1.000000 O
   O          1.0     0.499999      0.978036      0.250003     Biso  1.000000 O
   O          1.0     0.000008      0.521963      0.750009     Biso  1.000000 O
   O          1.0     0.499999      0.021963      0.750003     Biso  1.000000 O
   H          1.0     0.978643      0.579917      0.136705     Biso  1.000000 H
   H          1.0     0.021359      0.579918      0.363306     Biso  1.000000 H
   H          1.0     0.478642      0.079918      0.136703     Biso  1.000000 H
   H          1.0     0.521359      0.079916      0.363304     Biso  1.000000 H
   H          1.0     0.021359      0.420080      0.863306     Biso  1.000000 H
   H          1.0     0.978643      0.420083      0.636705     Biso  1.000000 H
   H          1.0     0.521359      0.920082      0.863304     Biso  1.000000 H
   H          1.0     0.478642      0.920082      0.636703     Biso  1.000000 H
   N          1.0     0.177421      0.259940      0.138861     Biso  1.000000 N
   N          1.0     0.822579      0.259939      0.361147     Biso  1.000000 N
   N          1.0     0.677422      0.759939      0.138861     Biso  1.000000 N
   N          1.0     0.322580      0.759940      0.361147     Biso  1.000000 N
   N          1.0     0.822579      0.740060      0.861147     Biso  1.000000 N
   N          1.0     0.177421      0.740059      0.638861     Biso  1.000000 N
   N          1.0     0.322579      0.240060      0.861147     Biso  1.000000 N
   N          1.0     0.677422      0.240059      0.638861     Biso  1.000000 N
   N          1.0     0.226329      0.267250      0.329934     Biso  1.000000 N
   N          1.0     0.773673      0.267246      0.170074     Biso  1.000000 N
   N          1.0     0.726329      0.767248      0.329934     Biso  1.000000 N
   N          1.0     0.273673      0.767249      0.170074     Biso  1.000000 N
   N          1.0     0.773672      0.732753      0.670074     Biso  1.000000 N
   N          1.0     0.226329      0.732749      0.829934     Biso  1.000000 N
   N          1.0     0.273672      0.232751      0.670074     Biso  1.000000 N
   N          1.0     0.726329      0.232751      0.829934     Biso  1.000000 N
   N          1.0     0.336018      0.276267      0.398764     Biso  1.000000 N
   N          1.0     0.663983      0.276261      0.101243     Biso  1.000000 N
   N          1.0     0.836018      0.776260      0.398764     Biso  1.000000 N
   N          1.0     0.163984      0.776268      0.101243     Biso  1.000000 N
   N          1.0     0.663983      0.723737      0.601243     Biso  1.000000 N
   N          1.0     0.336018      0.723733      0.898764     Biso  1.000000 N
   N          1.0     0.163983      0.223731      0.601244     Biso  1.000000 N
   N          1.0     0.836018      0.223740      0.898764     Biso  1.000000 N
   N          1.0     0.357590      0.275467      0.256776     Biso  1.000000 N
   N          1.0     0.642411      0.275463      0.243231     Biso  1.000000 N
   N          1.0     0.857591      0.775458      0.256776     Biso  1.000000 N
   N          1.0     0.142411      0.775471      0.243231     Biso  1.000000 N
   N          1.0     0.642410      0.724535      0.743230     Biso  1.000000 N
   N          1.0     0.357590      0.724533      0.756776     Biso  1.000000 N
   N          1.0     0.142411      0.224528      0.743231     Biso  1.000000 N
   N          1.0     0.857590      0.224541      0.756776     Biso  1.000000 N
