#======================================================================

# CRYSTAL DATA

#----------------------------------------------------------------------

data_VESTA_phase_1


_chemical_name_common                  '# Quantum Espresso PWSCF output snapsh'
_cell_length_a                         13.65170
_cell_length_b                         5.53278
_cell_length_c                         8.06345
_cell_angle_alpha                      90.00005
_cell_angle_beta                       121.04573
_cell_angle_gamma                      90.00013
_space_group_name_H-M_alt              'P 1'
_space_group_IT_number                 1

loop_
_space_group_symop_operation_xyz
   'x, y, z'

loop_
   _atom_site_label
   _atom_site_occupancy
   _atom_site_fract_x
   _atom_site_fract_y
   _atom_site_fract_z
   _atom_site_adp_type
   _atom_site_B_iso_or_equiv
   _atom_site_type_symbol
   C          1.0     0.258783      0.258822      0.093724     Biso  1.000000 C
   C          1.0     0.741188      0.258838      0.406259     Biso  1.000000 C
   C          1.0     0.758786      0.758796      0.093725     Biso  1.000000 C
   C          1.0     0.241189      0.758864      0.406259     Biso  1.000000 C
   C          1.0     0.741187      0.741160      0.906256     Biso  1.000000 C
   C          1.0     0.258782      0.741178      0.593722     Biso  1.000000 C
   C          1.0     0.241189      0.241135      0.906259     Biso  1.000000 C
   C          1.0     0.758784      0.241202      0.593723     Biso  1.000000 C
   Pb         1.0     0.999974      0.078915      0.249990     Biso  1.000000 Pb
   Pb         1.0     0.499986      0.578915      0.249992     Biso  1.000000 Pb
   Pb         1.0     0.999974      0.921084      0.749991     Biso  1.000000 Pb
   Pb         1.0     0.499986      0.421083      0.749993     Biso  1.000000 Pb
   O          1.0     0.067038      0.240704      0.029956     Biso  1.000000 O
   O          1.0     0.932939      0.240761      0.470062     Biso  1.000000 O
   O          1.0     0.567040      0.740742      0.029948     Biso  1.000000 O
   O          1.0     0.432939      0.740724      0.470052     Biso  1.000000 O
   O          1.0     0.932939      0.759233      0.970063     Biso  1.000000 O
   O          1.0     0.067037      0.759299      0.529957     Biso  1.000000 O
   O          1.0     0.432938      0.259271      0.970053     Biso  1.000000 O
   O          1.0     0.567039      0.259261      0.529948     Biso  1.000000 O
   O          1.0     0.000096      0.477974      0.250068     Biso  1.000000 O
   O          1.0     0.500007      0.977973      0.250005     Biso  1.000000 O
   O          1.0     0.000087      0.522025      0.750062     Biso  1.000000 O
   O          1.0     0.500001      0.022025      0.750001     Biso  1.000000 O
   H          1.0     0.978969      0.580367      0.135912     Biso  1.000000 H
   H          1.0     0.021013      0.580395      0.364122     Biso  1.000000 H
   H          1.0     0.478966      0.080383      0.135892     Biso  1.000000 H
   H          1.0     0.521010      0.080379      0.364103     Biso  1.000000 H
   H          1.0     0.021014      0.419605      0.864121     Biso  1.000000 H
   H          1.0     0.978970      0.419630      0.635911     Biso  1.000000 H
   H          1.0     0.521011      0.919620      0.864102     Biso  1.000000 H
   H          1.0     0.478966      0.919614      0.635892     Biso  1.000000 H
   N          1.0     0.176862      0.260824      0.139395     Biso  1.000000 N
   N          1.0     0.823114      0.260807      0.360601     Biso  1.000000 N
   N          1.0     0.676862      0.760817      0.139392     Biso  1.000000 N
   N          1.0     0.323119      0.760813      0.360602     Biso  1.000000 N
   N          1.0     0.823113      0.739189      0.860601     Biso  1.000000 N
   N          1.0     0.176860      0.739178      0.639394     Biso  1.000000 N
   N          1.0     0.323118      0.239183      0.860602     Biso  1.000000 N
   N          1.0     0.676862      0.239184      0.639393     Biso  1.000000 N
   N          1.0     0.225886      0.267027      0.331103     Biso  1.000000 N
   N          1.0     0.774102      0.266976      0.168897     Biso  1.000000 N
   N          1.0     0.725886      0.767005      0.331102     Biso  1.000000 N
   N          1.0     0.274102      0.766997      0.168895     Biso  1.000000 N
   N          1.0     0.774102      0.733021      0.668897     Biso  1.000000 N
   N          1.0     0.225886      0.732973      0.831103     Biso  1.000000 N
   N          1.0     0.274101      0.232999      0.668895     Biso  1.000000 N
   N          1.0     0.725885      0.232995      0.831102     Biso  1.000000 N
   N          1.0     0.336485      0.273992      0.400442     Biso  1.000000 N
   N          1.0     0.663500      0.273963      0.099540     Biso  1.000000 N
   N          1.0     0.836487      0.773927      0.400445     Biso  1.000000 N
   N          1.0     0.163501      0.774028      0.099542     Biso  1.000000 N
   N          1.0     0.663499      0.726038      0.599539     Biso  1.000000 N
   N          1.0     0.336485      0.726005      0.900441     Biso  1.000000 N
   N          1.0     0.163500      0.225974      0.599542     Biso  1.000000 N
   N          1.0     0.836486      0.226068      0.900445     Biso  1.000000 N
   N          1.0     0.358182      0.272946      0.257894     Biso  1.000000 N
   N          1.0     0.641793      0.272958      0.242075     Biso  1.000000 N
   N          1.0     0.858187      0.772870      0.257900     Biso  1.000000 N
   N          1.0     0.141797      0.773034      0.242079     Biso  1.000000 N
   N          1.0     0.641792      0.727044      0.742075     Biso  1.000000 N
   N          1.0     0.358182      0.727048      0.757894     Biso  1.000000 N
   N          1.0     0.141796      0.226970      0.742080     Biso  1.000000 N
   N          1.0     0.858186      0.227122      0.757901     Biso  1.000000 N
