#======================================================================

# CRYSTAL DATA

#----------------------------------------------------------------------

data_VESTA_phase_1


_chemical_name_common                  '# Quantum Espresso PWSCF output snapsh'
_cell_length_a                         13.62430
_cell_length_b                         5.51446
_cell_length_c                         8.05304
_cell_angle_alpha                      90.00004
_cell_angle_beta                       121.04248
_cell_angle_gamma                      90.00025
_space_group_name_H-M_alt              'P 1'
_space_group_IT_number                 1

loop_
_space_group_symop_operation_xyz
   'x, y, z'

loop_
   _atom_site_label
   _atom_site_occupancy
   _atom_site_fract_x
   _atom_site_fract_y
   _atom_site_fract_z
   _atom_site_adp_type
   _atom_site_B_iso_or_equiv
   _atom_site_type_symbol
   C          1.0     0.258779      0.258681      0.093792     Biso  1.000000 C
   C          1.0     0.741187      0.258689      0.406183     Biso  1.000000 C
   C          1.0     0.758784      0.758633      0.093795     Biso  1.000000 C
   C          1.0     0.241191      0.758738      0.406187     Biso  1.000000 C
   C          1.0     0.741186      0.741309      0.906182     Biso  1.000000 C
   C          1.0     0.258778      0.741319      0.593790     Biso  1.000000 C
   C          1.0     0.241190      0.241262      0.906187     Biso  1.000000 C
   C          1.0     0.758783      0.241366      0.593795     Biso  1.000000 C
   Pb         1.0     0.999964      0.078438      0.249988     Biso  1.000000 Pb
   Pb         1.0     0.499988      0.578438      0.249992     Biso  1.000000 Pb
   Pb         1.0     0.999964      0.921562      0.749989     Biso  1.000000 Pb
   Pb         1.0     0.499987      0.421562      0.749992     Biso  1.000000 Pb
   O          1.0     0.066741      0.241088      0.030032     Biso  1.000000 O
   O          1.0     0.933235      0.241189      0.470003     Biso  1.000000 O
   O          1.0     0.566744      0.741161      0.030016     Biso  1.000000 O
   O          1.0     0.433236      0.741116      0.469985     Biso  1.000000 O
   O          1.0     0.933234      0.758805      0.970003     Biso  1.000000 O
   O          1.0     0.066740      0.758917      0.530033     Biso  1.000000 O
   O          1.0     0.433236      0.258878      0.969986     Biso  1.000000 O
   O          1.0     0.566743      0.258844      0.530016     Biso  1.000000 O
   O          1.0     0.000160      0.477969      0.250112     Biso  1.000000 O
   O          1.0     0.499990      0.977969      0.249992     Biso  1.000000 O
   O          1.0     0.000152      0.522030      0.750106     Biso  1.000000 O
   O          1.0     0.499985      0.022031      0.749988     Biso  1.000000 O
   H          1.0     0.979043      0.580470      0.135735     Biso  1.000000 H
   H          1.0     0.020940      0.580519      0.364325     Biso  1.000000 H
   H          1.0     0.479039      0.080500      0.135698     Biso  1.000000 H
   H          1.0     0.520935      0.080489      0.364289     Biso  1.000000 H
   H          1.0     0.020940      0.419482      0.864323     Biso  1.000000 H
   H          1.0     0.979044      0.419528      0.635733     Biso  1.000000 H
   H          1.0     0.520936      0.919512      0.864288     Biso  1.000000 H
   H          1.0     0.479039      0.919497      0.635697     Biso  1.000000 H
   N          1.0     0.176733      0.261009      0.139519     Biso  1.000000 N
   N          1.0     0.823240      0.260981      0.360480     Biso  1.000000 N
   N          1.0     0.676736      0.760996      0.139516     Biso  1.000000 N
   N          1.0     0.323246      0.760993      0.360478     Biso  1.000000 N
   N          1.0     0.823239      0.739015      0.860480     Biso  1.000000 N
   N          1.0     0.176732      0.738995      0.639518     Biso  1.000000 N
   N          1.0     0.323245      0.239003      0.860479     Biso  1.000000 N
   N          1.0     0.676736      0.239006      0.639516     Biso  1.000000 N
   N          1.0     0.225787      0.266970      0.331375     Biso  1.000000 N
   N          1.0     0.774207      0.266888      0.168631     Biso  1.000000 N
   N          1.0     0.725786      0.766929      0.331371     Biso  1.000000 N
   N          1.0     0.274206      0.766929      0.168627     Biso  1.000000 N
   N          1.0     0.774206      0.733109      0.668630     Biso  1.000000 N
   N          1.0     0.225786      0.733032      0.831374     Biso  1.000000 N
   N          1.0     0.274205      0.233068      0.668627     Biso  1.000000 N
   N          1.0     0.725785      0.233073      0.831371     Biso  1.000000 N
   N          1.0     0.336598      0.273489      0.400833     Biso  1.000000 N
   N          1.0     0.663388      0.273417      0.099143     Biso  1.000000 N
   N          1.0     0.836602      0.773367      0.400838     Biso  1.000000 N
   N          1.0     0.163392      0.773540      0.099148     Biso  1.000000 N
   N          1.0     0.663387      0.726584      0.599143     Biso  1.000000 N
   N          1.0     0.336597      0.726508      0.900833     Biso  1.000000 N
   N          1.0     0.163391      0.226463      0.599149     Biso  1.000000 N
   N          1.0     0.836601      0.226629      0.900839     Biso  1.000000 N
   N          1.0     0.358320      0.272394      0.258156     Biso  1.000000 N
   N          1.0     0.641652      0.272370      0.241803     Biso  1.000000 N
   N          1.0     0.858328      0.772249      0.258165     Biso  1.000000 N
   N          1.0     0.141659      0.772515      0.241811     Biso  1.000000 N
   N          1.0     0.641651      0.727633      0.741802     Biso  1.000000 N
   N          1.0     0.358319      0.727602      0.758155     Biso  1.000000 N
   N          1.0     0.141659      0.227490      0.741813     Biso  1.000000 N
   N          1.0     0.858328      0.227745      0.758166     Biso  1.000000 N
