#======================================================================

# CRYSTAL DATA

#----------------------------------------------------------------------

data_VESTA_phase_1


_chemical_name_common                  '# Quantum Espresso PWSCF output snapsh'
_cell_length_a                         13.54100
_cell_length_b                         5.43816
_cell_length_c                         7.99497
_cell_angle_alpha                      89.99999
_cell_angle_beta                       121.34022
_cell_angle_gamma                      90.00004
_space_group_name_H-M_alt              'P 1'
_space_group_IT_number                 1

loop_
_space_group_symop_operation_xyz
   'x, y, z'

loop_
   _atom_site_label
   _atom_site_occupancy
   _atom_site_fract_x
   _atom_site_fract_y
   _atom_site_fract_z
   _atom_site_adp_type
   _atom_site_B_iso_or_equiv
   _atom_site_type_symbol
   C          1.0     0.258113      0.269931      0.092992     Biso  1.000000 C
   C          1.0     0.740218      0.241855      0.405241     Biso  1.000000 C
   C          1.0     0.759759      0.741855      0.094747     Biso  1.000000 C
   C          1.0     0.241865      0.769930      0.407000     Biso  1.000000 C
   C          1.0     0.740218      0.758144      0.905242     Biso  1.000000 C
   C          1.0     0.258112      0.730068      0.592990     Biso  1.000000 C
   C          1.0     0.241864      0.230067      0.906998     Biso  1.000000 C
   C          1.0     0.759758      0.258143      0.594748     Biso  1.000000 C
   Pb         1.0     0.993311      0.077373      0.247542     Biso  1.000000 Pb
   Pb         1.0     0.506666      0.577376      0.252448     Biso  1.000000 Pb
   Pb         1.0     0.993311      0.922622      0.747542     Biso  1.000000 Pb
   Pb         1.0     0.506666      0.422625      0.752448     Biso  1.000000 Pb
   O          1.0     0.065882      0.235313      0.033866     Biso  1.000000 O
   O          1.0     0.933660      0.255383      0.472721     Biso  1.000000 O
   O          1.0     0.566317      0.755387      0.027268     Biso  1.000000 O
   O          1.0     0.434095      0.735315      0.466124     Biso  1.000000 O
   O          1.0     0.933659      0.744611      0.972721     Biso  1.000000 O
   O          1.0     0.065881      0.764683      0.533866     Biso  1.000000 O
   O          1.0     0.434095      0.264685      0.966123     Biso  1.000000 O
   O          1.0     0.566317      0.244615      0.527268     Biso  1.000000 O
   O          1.0     0.029731      0.477190      0.272450     Biso  1.000000 O
   O          1.0     0.470246      0.977193      0.227540     Biso  1.000000 O
   O          1.0     0.029731      0.522806      0.772449     Biso  1.000000 O
   O          1.0     0.470245      0.022808      0.727540     Biso  1.000000 O
   H          1.0     0.984647      0.564206      0.146119     Biso  1.000000 H
   H          1.0     0.024269      0.575245      0.371914     Biso  1.000000 H
   H          1.0     0.475707      0.075249      0.128076     Biso  1.000000 H
   H          1.0     0.515329      0.064210      0.353871     Biso  1.000000 H
   H          1.0     0.024269      0.424750      0.871914     Biso  1.000000 H
   H          1.0     0.984647      0.435789      0.646118     Biso  1.000000 H
   H          1.0     0.515330      0.935792      0.853871     Biso  1.000000 H
   H          1.0     0.475707      0.924753      0.628076     Biso  1.000000 H
   N          1.0     0.176553      0.267744      0.141319     Biso  1.000000 N
   N          1.0     0.822659      0.249075      0.360509     Biso  1.000000 N
   N          1.0     0.677318      0.749077      0.139480     Biso  1.000000 N
   N          1.0     0.323425      0.767745      0.358671     Biso  1.000000 N
   N          1.0     0.822659      0.750922      0.860509     Biso  1.000000 N
   N          1.0     0.176552      0.732253      0.641318     Biso  1.000000 N
   N          1.0     0.323425      0.232254      0.858672     Biso  1.000000 N
   N          1.0     0.677317      0.250924      0.639480     Biso  1.000000 N
   N          1.0     0.227697      0.278736      0.334974     Biso  1.000000 N
   N          1.0     0.773351      0.242583      0.167124     Biso  1.000000 N
   N          1.0     0.726626      0.742584      0.332866     Biso  1.000000 N
   N          1.0     0.272280      0.778737      0.165015     Biso  1.000000 N
   N          1.0     0.773351      0.757415      0.667123     Biso  1.000000 N
   N          1.0     0.227697      0.721262      0.834974     Biso  1.000000 N
   N          1.0     0.272280      0.221263      0.665015     Biso  1.000000 N
   N          1.0     0.726625      0.257416      0.832866     Biso  1.000000 N
   N          1.0     0.338295      0.298584      0.402448     Biso  1.000000 N
   N          1.0     0.661355      0.232429      0.095741     Biso  1.000000 N
   N          1.0     0.838622      0.732427      0.404248     Biso  1.000000 N
   N          1.0     0.161682      0.798583      0.097541     Biso  1.000000 N
   N          1.0     0.661354      0.767572      0.595741     Biso  1.000000 N
   N          1.0     0.338295      0.701415      0.902448     Biso  1.000000 N
   N          1.0     0.161681      0.201414      0.597542     Biso  1.000000 N
   N          1.0     0.838622      0.267570      0.904249     Biso  1.000000 N
   N          1.0     0.358294      0.300683      0.257047     Biso  1.000000 N
   N          1.0     0.639400      0.231961      0.239267     Biso  1.000000 N
   N          1.0     0.860576      0.731959      0.260722     Biso  1.000000 N
   N          1.0     0.141682      0.800681      0.242941     Biso  1.000000 N
   N          1.0     0.639400      0.768040      0.739267     Biso  1.000000 N
   N          1.0     0.358294      0.699317      0.757048     Biso  1.000000 N
   N          1.0     0.141682      0.199316      0.742942     Biso  1.000000 N
   N          1.0     0.860576      0.268037      0.760722     Biso  1.000000 N
