#======================================================================

# CRYSTAL DATA

#----------------------------------------------------------------------

data_VESTA_phase_1


_chemical_name_common                  '# Quantum Espresso PWSCF output snapsh'
_cell_length_a                         14.47433
_cell_length_b                         6.19765
_cell_length_c                         8.42422
_cell_angle_alpha                      90.00001
_cell_angle_beta                       121.62411
_cell_angle_gamma                      89.99998
_space_group_name_H-M_alt              'P 1'
_space_group_IT_number                 1

loop_
_space_group_symop_operation_xyz
   'x, y, z'

loop_
   _atom_site_label
   _atom_site_occupancy
   _atom_site_fract_x
   _atom_site_fract_y
   _atom_site_fract_z
   _atom_site_adp_type
   _atom_site_B_iso_or_equiv
   _atom_site_type_symbol
   C          1.0     0.258716      0.262077      0.091004     Biso  1.000000 C
   C          1.0     0.741277      0.262075      0.409001     Biso  1.000000 C
   C          1.0     0.758713      0.762079      0.090997     Biso  1.000000 C
   C          1.0     0.241282      0.762080      0.409001     Biso  1.000000 C
   C          1.0     0.741279      0.737924      0.908997     Biso  1.000000 C
   C          1.0     0.258716      0.737925      0.590998     Biso  1.000000 C
   C          1.0     0.241280      0.237921      0.909001     Biso  1.000000 C
   C          1.0     0.758712      0.237922      0.590998     Biso  1.000000 C
   Pb         1.0     0.999998      0.093444      0.250000     Biso  1.000000 Pb
   Pb         1.0     0.499997      0.593444      0.249999     Biso  1.000000 Pb
   Pb         1.0     0.999998      0.906556      0.749999     Biso  1.000000 Pb
   Pb         1.0     0.499997      0.406556      0.750000     Biso  1.000000 Pb
   O          1.0     0.075445      0.223784      0.026503     Biso  1.000000 O
   O          1.0     0.924548      0.223784      0.473498     Biso  1.000000 O
   O          1.0     0.575444      0.723785      0.026501     Biso  1.000000 O
   O          1.0     0.424551      0.723786      0.473497     Biso  1.000000 O
   O          1.0     0.924549      0.776216      0.973496     Biso  1.000000 O
   O          1.0     0.075446      0.776216      0.526501     Biso  1.000000 O
   O          1.0     0.424550      0.276216      0.973498     Biso  1.000000 O
   O          1.0     0.575443      0.276215      0.526502     Biso  1.000000 O
   O          1.0     0.999999      0.480430      0.250000     Biso  1.000000 O
   O          1.0     0.499996      0.980430      0.250000     Biso  1.000000 O
   O          1.0     1.000000      0.519570      0.750000     Biso  1.000000 O
   O          1.0     0.499997      0.019570      0.749999     Biso  1.000000 O
   H          1.0     0.977570      0.577316      0.142348     Biso  1.000000 H
   H          1.0     0.022425      0.577316      0.357651     Biso  1.000000 H
   H          1.0     0.477571      0.077316      0.142349     Biso  1.000000 H
   H          1.0     0.522422      0.077315      0.357651     Biso  1.000000 H
   H          1.0     0.022424      0.422684      0.857651     Biso  1.000000 H
   H          1.0     0.977570      0.422684      0.642348     Biso  1.000000 H
   H          1.0     0.522423      0.922685      0.857651     Biso  1.000000 H
   H          1.0     0.477571      0.922685      0.642349     Biso  1.000000 H
   N          1.0     0.180554      0.250739      0.134325     Biso  1.000000 N
   N          1.0     0.819439      0.250738      0.365676     Biso  1.000000 N
   N          1.0     0.680554      0.750739      0.134322     Biso  1.000000 N
   N          1.0     0.319441      0.750740      0.365674     Biso  1.000000 N
   N          1.0     0.819440      0.749262      0.865673     Biso  1.000000 N
   N          1.0     0.180555      0.749262      0.634324     Biso  1.000000 N
   N          1.0     0.319441      0.249262      0.865678     Biso  1.000000 N
   N          1.0     0.680552      0.249261      0.634325     Biso  1.000000 N
   N          1.0     0.228558      0.267195      0.320790     Biso  1.000000 N
   N          1.0     0.771434      0.267193      0.179212     Biso  1.000000 N
   N          1.0     0.728559      0.767192      0.320787     Biso  1.000000 N
   N          1.0     0.271436      0.767193      0.179211     Biso  1.000000 N
   N          1.0     0.771435      0.732806      0.679210     Biso  1.000000 N
   N          1.0     0.228560      0.732807      0.820788     Biso  1.000000 N
   N          1.0     0.271434      0.232808      0.679212     Biso  1.000000 N
   N          1.0     0.728558      0.232808      0.820789     Biso  1.000000 N
   N          1.0     0.332943      0.293122      0.387118     Biso  1.000000 N
   N          1.0     0.667050      0.293121      0.112884     Biso  1.000000 N
   N          1.0     0.832942      0.793120      0.387113     Biso  1.000000 N
   N          1.0     0.167052      0.793121      0.112884     Biso  1.000000 N
   N          1.0     0.667051      0.706879      0.612881     Biso  1.000000 N
   N          1.0     0.332944      0.706879      0.887115     Biso  1.000000 N
   N          1.0     0.167050      0.206880      0.612886     Biso  1.000000 N
   N          1.0     0.832942      0.206880      0.887116     Biso  1.000000 N
   N          1.0     0.353725      0.294067      0.249503     Biso  1.000000 N
   N          1.0     0.646267      0.294066      0.250498     Biso  1.000000 N
   N          1.0     0.853724      0.794067      0.249497     Biso  1.000000 N
   N          1.0     0.146270      0.794068      0.250499     Biso  1.000000 N
   N          1.0     0.646269      0.705934      0.750496     Biso  1.000000 N
   N          1.0     0.353727      0.705934      0.749501     Biso  1.000000 N
   N          1.0     0.146270      0.205933      0.750502     Biso  1.000000 N
   N          1.0     0.853724      0.205933      0.749500     Biso  1.000000 N
