#======================================================================

# CRYSTAL DATA

#----------------------------------------------------------------------

data_VESTA_phase_1


_chemical_name_common                  '# Quantum Espresso PWSCF output snapsh'
_cell_length_a                         14.31627
_cell_length_b                         6.03322
_cell_length_c                         8.34166
_cell_angle_alpha                      90
_cell_angle_beta                       121.41307
_cell_angle_gamma                      90.00001
_space_group_name_H-M_alt              'P 1'
_space_group_IT_number                 1

loop_
_space_group_symop_operation_xyz
   'x, y, z'

loop_
   _atom_site_label
   _atom_site_occupancy
   _atom_site_fract_x
   _atom_site_fract_y
   _atom_site_fract_z
   _atom_site_adp_type
   _atom_site_B_iso_or_equiv
   _atom_site_type_symbol
   C          1.0     0.258759      0.261573      0.091675     Biso  1.000000 C
   C          1.0     0.741238      0.261572      0.408336     Biso  1.000000 C
   C          1.0     0.758758      0.761574      0.091663     Biso  1.000000 C
   C          1.0     0.241242      0.761577      0.408329     Biso  1.000000 C
   C          1.0     0.741240      0.738427      0.908327     Biso  1.000000 C
   C          1.0     0.258760      0.738429      0.591666     Biso  1.000000 C
   C          1.0     0.241241      0.238426      0.908337     Biso  1.000000 C
   C          1.0     0.758756      0.238424      0.591671     Biso  1.000000 C
   Pb         1.0     1.000000      0.090004      0.250001     Biso  1.000000 Pb
   Pb         1.0     0.499999      0.590004      0.249999     Biso  1.000000 Pb
   Pb         1.0     1.000000      0.909996      0.750000     Biso  1.000000 Pb
   Pb         1.0     0.499999      0.409996      0.750001     Biso  1.000000 Pb
   O          1.0     0.073934      0.228068      0.027573     Biso  1.000000 O
   O          1.0     0.926062      0.228068      0.472432     Biso  1.000000 O
   O          1.0     0.573934      0.728069      0.027569     Biso  1.000000 O
   O          1.0     0.426066      0.728069      0.472428     Biso  1.000000 O
   O          1.0     0.926065      0.771933      0.972428     Biso  1.000000 O
   O          1.0     0.073935      0.771934      0.527569     Biso  1.000000 O
   O          1.0     0.426064      0.271932      0.972432     Biso  1.000000 O
   O          1.0     0.573932      0.271931      0.527572     Biso  1.000000 O
   O          1.0     1.000002      0.479595      0.250000     Biso  1.000000 O
   O          1.0     0.499998      0.979595      0.250001     Biso  1.000000 O
   O          1.0     1.000000      0.520405      0.750002     Biso  1.000000 O
   O          1.0     0.500000      0.020407      0.750000     Biso  1.000000 O
   H          1.0     0.977524      0.578127      0.140866     Biso  1.000000 H
   H          1.0     0.022476      0.578129      0.359134     Biso  1.000000 H
   H          1.0     0.477523      0.078128      0.140867     Biso  1.000000 H
   H          1.0     0.522473      0.078127      0.359135     Biso  1.000000 H
   H          1.0     0.022475      0.421873      0.859136     Biso  1.000000 H
   H          1.0     0.977522      0.421872      0.640867     Biso  1.000000 H
   H          1.0     0.522475      0.921873      0.859133     Biso  1.000000 H
   H          1.0     0.477525      0.921874      0.640866     Biso  1.000000 H
   N          1.0     0.179882      0.253502      0.135643     Biso  1.000000 N
   N          1.0     0.820116      0.253499      0.364365     Biso  1.000000 N
   N          1.0     0.679881      0.753501      0.135635     Biso  1.000000 N
   N          1.0     0.320119      0.753502      0.364359     Biso  1.000000 N
   N          1.0     0.820117      0.746499      0.864357     Biso  1.000000 N
   N          1.0     0.179882      0.746500      0.635636     Biso  1.000000 N
   N          1.0     0.320117      0.246499      0.864366     Biso  1.000000 N
   N          1.0     0.679880      0.246498      0.635642     Biso  1.000000 N
   N          1.0     0.228117      0.267473      0.323339     Biso  1.000000 N
   N          1.0     0.771878      0.267471      0.176669     Biso  1.000000 N
   N          1.0     0.728120      0.767469      0.323331     Biso  1.000000 N
   N          1.0     0.271881      0.767471      0.176663     Biso  1.000000 N
   N          1.0     0.771880      0.732528      0.676663     Biso  1.000000 N
   N          1.0     0.228120      0.732529      0.823332     Biso  1.000000 N
   N          1.0     0.271879      0.232531      0.676670     Biso  1.000000 N
   N          1.0     0.728117      0.232530      0.823338     Biso  1.000000 N
   N          1.0     0.333690      0.288738      0.390150     Biso  1.000000 N
   N          1.0     0.666307      0.288735      0.109859     Biso  1.000000 N
   N          1.0     0.833691      0.788733      0.390141     Biso  1.000000 N
   N          1.0     0.166309      0.788736      0.109853     Biso  1.000000 N
   N          1.0     0.666309      0.711263      0.609851     Biso  1.000000 N
   N          1.0     0.333692      0.711265      0.890143     Biso  1.000000 N
   N          1.0     0.166307      0.211267      0.609861     Biso  1.000000 N
   N          1.0     0.833689      0.211265      0.890148     Biso  1.000000 N
   N          1.0     0.354647      0.289235      0.251312     Biso  1.000000 N
   N          1.0     0.645350      0.289233      0.248697     Biso  1.000000 N
   N          1.0     0.854647      0.789234      0.251301     Biso  1.000000 N
   N          1.0     0.145353      0.789237      0.248693     Biso  1.000000 N
   N          1.0     0.645352      0.710766      0.748689     Biso  1.000000 N
   N          1.0     0.354648      0.710767      0.751304     Biso  1.000000 N
   N          1.0     0.145352      0.210766      0.748701     Biso  1.000000 N
   N          1.0     0.854645      0.210765      0.751309     Biso  1.000000 N
