#======================================================================

# CRYSTAL DATA

#----------------------------------------------------------------------

data_VESTA_phase_1


_chemical_name_common                  '# Quantum Espresso PWSCF output snapsh'
_cell_length_a                         8.17248
_cell_length_b                         12.68098
_cell_length_c                         5.98691
_cell_angle_alpha                      90
_cell_angle_beta                       102.21516
_cell_angle_gamma                      89.99999
_space_group_name_H-M_alt              'P 1'
_space_group_IT_number                 1

loop_
_space_group_symop_operation_xyz
   'x, y, z'

loop_
   _atom_site_label
   _atom_site_occupancy
   _atom_site_fract_x
   _atom_site_fract_y
   _atom_site_fract_z
   _atom_site_adp_type
   _atom_site_B_iso_or_equiv
   _atom_site_type_symbol
   K          1.0     0.899223      0.466327      0.221614     Biso  1.000000 K
   K          1.0     0.100786      0.966326      0.278387     Biso  1.000000 K
   K          1.0     0.100785      0.533674      0.778387     Biso  1.000000 K
   K          1.0     0.899224      0.033672      0.721614     Biso  1.000000 K
   H          1.0     0.796562      0.378115      0.658618     Biso  1.000000 H
   H          1.0     0.203446      0.878114      0.841384     Biso  1.000000 H
   H          1.0     0.203447      0.621887      0.341383     Biso  1.000000 H
   H          1.0     0.796562      0.121887      0.158619     Biso  1.000000 H
   H          1.0     0.779473      0.498902      0.711174     Biso  1.000000 H
   H          1.0     0.220537      0.998901      0.788828     Biso  1.000000 H
   H          1.0     0.220538      0.501101      0.288826     Biso  1.000000 H
   H          1.0     0.779472      0.001100      0.211176     Biso  1.000000 H
   H          1.0     0.639474      0.989837      0.892245     Biso  1.000000 H
   H          1.0     0.360536      0.489836      0.607756     Biso  1.000000 H
   H          1.0     0.360536      0.010164      0.107755     Biso  1.000000 H
   H          1.0     0.639473      0.510163      0.392246     Biso  1.000000 H
   O          1.0     0.748995      0.581030      0.893694     Biso  1.000000 O
   O          1.0     0.251015      0.081030      0.606307     Biso  1.000000 O
   O          1.0     0.251015      0.418971      0.106306     Biso  1.000000 O
   O          1.0     0.748996      0.918971      0.393694     Biso  1.000000 O
   O          1.0     0.802425      0.448091      0.595007     Biso  1.000000 O
   O          1.0     0.197586      0.948091      0.904994     Biso  1.000000 O
   O          1.0     0.197586      0.551909      0.404996     Biso  1.000000 O
   O          1.0     0.802425      0.051910      0.095006     Biso  1.000000 O
   O          1.0     0.336505      0.747225      0.545421     Biso  1.000000 O
   O          1.0     0.663505      0.247225      0.954581     Biso  1.000000 O
   O          1.0     0.663505      0.252775      0.454581     Biso  1.000000 O
   O          1.0     0.336506      0.752775      0.045421     Biso  1.000000 O
   N          1.0     0.817169      0.673559      0.925853     Biso  1.000000 N
   N          1.0     0.182842      0.173559      0.574150     Biso  1.000000 N
   N          1.0     0.182842      0.326443      0.074150     Biso  1.000000 N
   N          1.0     0.817168      0.826443      0.425853     Biso  1.000000 N
   N          1.0     0.976382      0.688505      0.039496     Biso  1.000000 N
   N          1.0     0.023629      0.188506      0.460506     Biso  1.000000 N
   N          1.0     0.023629      0.311495      0.960507     Biso  1.000000 N
   N          1.0     0.976382      0.811496      0.539496     Biso  1.000000 N
   N          1.0     0.998131      0.790803      0.052427     Biso  1.000000 N
   N          1.0     0.001880      0.290803      0.447576     Biso  1.000000 N
   N          1.0     0.001880      0.209197      0.947575     Biso  1.000000 N
   N          1.0     0.998131      0.709197      0.552427     Biso  1.000000 N
   N          1.0     0.858068      0.842619      0.951375     Biso  1.000000 N
   N          1.0     0.141942      0.342619      0.548629     Biso  1.000000 N
   N          1.0     0.141941      0.157381      0.048629     Biso  1.000000 N
   N          1.0     0.858068      0.657381      0.451375     Biso  1.000000 N
   N          1.0     0.482070      0.702657      0.660114     Biso  1.000000 N
   N          1.0     0.517940      0.202657      0.839888     Biso  1.000000 N
   N          1.0     0.517940      0.297344      0.339888     Biso  1.000000 N
   N          1.0     0.482069      0.797344      0.160114     Biso  1.000000 N
   N          1.0     0.342835      0.857001      0.560727     Biso  1.000000 N
   N          1.0     0.657174      0.356999      0.939276     Biso  1.000000 N
   N          1.0     0.657174      0.143002      0.439275     Biso  1.000000 N
   N          1.0     0.342835      0.643001      0.060728     Biso  1.000000 N
   N          1.0     0.546499      0.976671      0.750622     Biso  1.000000 N
   N          1.0     0.453510      0.476670      0.749380     Biso  1.000000 N
   N          1.0     0.453510      0.023330      0.249379     Biso  1.000000 N
   N          1.0     0.546498      0.523330      0.250623     Biso  1.000000 N
   H          1.0     0.464840      0.037950      0.707459     Biso  1.000000 H
   H          1.0     0.535169      0.537951      0.792544     Biso  1.000000 H
   H          1.0     0.535169      0.962051      0.292546     Biso  1.000000 H
   H          1.0     0.464840      0.462051      0.207458     Biso  1.000000 H
   C          1.0     0.745103      0.768482      0.871337     Biso  1.000000 C
   C          1.0     0.254908      0.268483      0.628664     Biso  1.000000 C
   C          1.0     0.254908      0.231517      0.128665     Biso  1.000000 C
   C          1.0     0.745104      0.731517      0.371337     Biso  1.000000 C
   C          1.0     0.578089      0.782134      0.747396     Biso  1.000000 C
   C          1.0     0.421920      0.282133      0.752607     Biso  1.000000 C
   C          1.0     0.421919      0.217867      0.252607     Biso  1.000000 C
   C          1.0     0.578089      0.717867      0.247396     Biso  1.000000 C
   C          1.0     0.491626      0.879727      0.689852     Biso  1.000000 C
   C          1.0     0.508384      0.379728      0.810150     Biso  1.000000 C
   C          1.0     0.508384      0.120272      0.310151     Biso  1.000000 C
   C          1.0     0.491627      0.620273      0.189851     Biso  1.000000 C
