#======================================================================

# CRYSTAL DATA

#----------------------------------------------------------------------

data_VESTA_phase_1


_chemical_name_common                  '# Quantum Espresso PWSCF output snapsh'
_cell_length_a                         8.13857
_cell_length_b                         12.65030
_cell_length_c                         5.94817
_cell_angle_alpha                      90
_cell_angle_beta                       102.13344
_cell_angle_gamma                      90
_space_group_name_H-M_alt              'P 1'
_space_group_IT_number                 1

loop_
_space_group_symop_operation_xyz
   'x, y, z'

loop_
   _atom_site_label
   _atom_site_occupancy
   _atom_site_fract_x
   _atom_site_fract_y
   _atom_site_fract_z
   _atom_site_adp_type
   _atom_site_B_iso_or_equiv
   _atom_site_type_symbol
   K          1.0     0.900158      0.466726      0.221292     Biso  1.000000 K
   K          1.0     0.099850      0.966724      0.278709     Biso  1.000000 K
   K          1.0     0.099848      0.533274      0.778709     Biso  1.000000 K
   K          1.0     0.900158      0.033273      0.721291     Biso  1.000000 K
   H          1.0     0.795841      0.377484      0.658446     Biso  1.000000 H
   H          1.0     0.204164      0.877482      0.841555     Biso  1.000000 H
   H          1.0     0.204166      0.622516      0.341555     Biso  1.000000 H
   H          1.0     0.795842      0.122517      0.158447     Biso  1.000000 H
   H          1.0     0.779098      0.498606      0.711749     Biso  1.000000 H
   H          1.0     0.220909      0.998605      0.788252     Biso  1.000000 H
   H          1.0     0.220911      0.501395      0.288251     Biso  1.000000 H
   H          1.0     0.779098      0.001395      0.211751     Biso  1.000000 H
   H          1.0     0.639886      0.990311      0.892940     Biso  1.000000 H
   H          1.0     0.360121      0.490311      0.607060     Biso  1.000000 H
   H          1.0     0.360122      0.009688      0.107059     Biso  1.000000 H
   H          1.0     0.639886      0.509687      0.392941     Biso  1.000000 H
   O          1.0     0.748788      0.581195      0.893877     Biso  1.000000 O
   O          1.0     0.251220      0.081196      0.606123     Biso  1.000000 O
   O          1.0     0.251220      0.418804      0.106122     Biso  1.000000 O
   O          1.0     0.748790      0.918804      0.393878     Biso  1.000000 O
   O          1.0     0.802054      0.447661      0.594814     Biso  1.000000 O
   O          1.0     0.197954      0.947660      0.905186     Biso  1.000000 O
   O          1.0     0.197955      0.552338      0.405189     Biso  1.000000 O
   O          1.0     0.802055      0.052340      0.094813     Biso  1.000000 O
   O          1.0     0.335900      0.747236      0.543934     Biso  1.000000 O
   O          1.0     0.664108      0.247237      0.956068     Biso  1.000000 O
   O          1.0     0.664109      0.252762      0.456068     Biso  1.000000 O
   O          1.0     0.335902      0.752761      0.043934     Biso  1.000000 O
   N          1.0     0.817623      0.673754      0.926313     Biso  1.000000 N
   N          1.0     0.182385      0.173755      0.573689     Biso  1.000000 N
   N          1.0     0.182386      0.326247      0.073690     Biso  1.000000 N
   N          1.0     0.817623      0.826246      0.426313     Biso  1.000000 N
   N          1.0     0.977340      0.688561      0.040565     Biso  1.000000 N
   N          1.0     0.022670      0.188563      0.459437     Biso  1.000000 N
   N          1.0     0.022669      0.311437      0.959438     Biso  1.000000 N
   N          1.0     0.977339      0.811437      0.540564     Biso  1.000000 N
   N          1.0     0.999271      0.791022      0.053850     Biso  1.000000 N
   N          1.0     0.000739      0.291023      0.446153     Biso  1.000000 N
   N          1.0     0.000738      0.208976      0.946152     Biso  1.000000 N
   N          1.0     0.999270      0.708975      0.553850     Biso  1.000000 N
   N          1.0     0.858804      0.843079      0.952412     Biso  1.000000 N
   N          1.0     0.141203      0.343079      0.547592     Biso  1.000000 N
   N          1.0     0.141203      0.156920      0.047592     Biso  1.000000 N
   N          1.0     0.858805      0.656919      0.452412     Biso  1.000000 N
   N          1.0     0.481885      0.702613      0.659469     Biso  1.000000 N
   N          1.0     0.518122      0.202614      0.840532     Biso  1.000000 N
   N          1.0     0.518123      0.297387      0.340533     Biso  1.000000 N
   N          1.0     0.481885      0.797386      0.159469     Biso  1.000000 N
   N          1.0     0.342247      0.857226      0.558880     Biso  1.000000 N
   N          1.0     0.657759      0.357225      0.941123     Biso  1.000000 N
   N          1.0     0.657760      0.142776      0.441122     Biso  1.000000 N
   N          1.0     0.342248      0.642774      0.058881     Biso  1.000000 N
   N          1.0     0.546313      0.977064      0.750885     Biso  1.000000 N
   N          1.0     0.453693      0.477064      0.749116     Biso  1.000000 N
   N          1.0     0.453694      0.022935      0.249115     Biso  1.000000 N
   N          1.0     0.546313      0.522934      0.250887     Biso  1.000000 N
   H          1.0     0.464713      0.038635      0.707499     Biso  1.000000 H
   H          1.0     0.535293      0.538636      0.792504     Biso  1.000000 H
   H          1.0     0.535294      0.961364      0.292506     Biso  1.000000 H
   H          1.0     0.464714      0.461365      0.207498     Biso  1.000000 H
   C          1.0     0.745459      0.768869      0.871790     Biso  1.000000 C
   C          1.0     0.254549      0.268870      0.628210     Biso  1.000000 C
   C          1.0     0.254550      0.231129      0.128211     Biso  1.000000 C
   C          1.0     0.745461      0.731128      0.371790     Biso  1.000000 C
   C          1.0     0.578004      0.782347      0.747183     Biso  1.000000 C
   C          1.0     0.422003      0.282346      0.752820     Biso  1.000000 C
   C          1.0     0.422003      0.217653      0.252820     Biso  1.000000 C
   C          1.0     0.578005      0.717652      0.247183     Biso  1.000000 C
   C          1.0     0.491342      0.880063      0.689149     Biso  1.000000 C
   C          1.0     0.508665      0.380065      0.810853     Biso  1.000000 C
   C          1.0     0.508666      0.119934      0.310854     Biso  1.000000 C
   C          1.0     0.491344      0.619934      0.189148     Biso  1.000000 C
