#======================================================================

# CRYSTAL DATA

#----------------------------------------------------------------------

data_VESTA_phase_1


_chemical_name_common                  '# Quantum Espresso PWSCF output snapsh'
_cell_length_a                         8.02655
_cell_length_b                         12.54071
_cell_length_c                         5.81326
_cell_angle_alpha                      89.99999
_cell_angle_beta                       101.92502
_cell_angle_gamma                      90.00002
_space_group_name_H-M_alt              'P 1'
_space_group_IT_number                 1

loop_
_space_group_symop_operation_xyz
   'x, y, z'

loop_
   _atom_site_label
   _atom_site_occupancy
   _atom_site_fract_x
   _atom_site_fract_y
   _atom_site_fract_z
   _atom_site_adp_type
   _atom_site_B_iso_or_equiv
   _atom_site_type_symbol
   K          1.0     0.903108      0.468047      0.220345     Biso  1.000000 K
   K          1.0     0.096890      0.968047      0.279654     Biso  1.000000 K
   K          1.0     0.096891      0.531951      0.779654     Biso  1.000000 K
   K          1.0     0.903108      0.031951      0.720345     Biso  1.000000 K
   H          1.0     0.793974      0.375318      0.658541     Biso  1.000000 H
   H          1.0     0.206025      0.875317      0.841457     Biso  1.000000 H
   H          1.0     0.206025      0.624680      0.341457     Biso  1.000000 H
   H          1.0     0.793974      0.124680      0.158541     Biso  1.000000 H
   H          1.0     0.778074      0.497608      0.714366     Biso  1.000000 H
   H          1.0     0.221925      0.997608      0.785633     Biso  1.000000 H
   H          1.0     0.221925      0.502390      0.285633     Biso  1.000000 H
   H          1.0     0.778074      0.002390      0.214366     Biso  1.000000 H
   H          1.0     0.641684      0.991706      0.895930     Biso  1.000000 H
   H          1.0     0.358315      0.491706      0.604070     Biso  1.000000 H
   H          1.0     0.358315      0.008291      0.104070     Biso  1.000000 H
   H          1.0     0.641684      0.508291      0.395929     Biso  1.000000 H
   O          1.0     0.747734      0.581880      0.894453     Biso  1.000000 O
   O          1.0     0.252265      0.081880      0.605546     Biso  1.000000 O
   O          1.0     0.252265      0.418118      0.105547     Biso  1.000000 O
   O          1.0     0.747734      0.918118      0.394453     Biso  1.000000 O
   O          1.0     0.801190      0.446211      0.594770     Biso  1.000000 O
   O          1.0     0.198809      0.946212      0.905228     Biso  1.000000 O
   O          1.0     0.198809      0.553786      0.405229     Biso  1.000000 O
   O          1.0     0.801190      0.053786      0.094771     Biso  1.000000 O
   O          1.0     0.333782      0.747299      0.538407     Biso  1.000000 O
   O          1.0     0.666216      0.247299      0.961592     Biso  1.000000 O
   O          1.0     0.666216      0.252699      0.461592     Biso  1.000000 O
   O          1.0     0.333782      0.752699      0.038406     Biso  1.000000 O
   N          1.0     0.819109      0.674473      0.927861     Biso  1.000000 N
   N          1.0     0.180890      0.174473      0.572138     Biso  1.000000 N
   N          1.0     0.180890      0.325525      0.072138     Biso  1.000000 N
   N          1.0     0.819109      0.825525      0.427861     Biso  1.000000 N
   N          1.0     0.980632      0.688747      0.044136     Biso  1.000000 N
   N          1.0     0.019367      0.188747      0.455863     Biso  1.000000 N
   N          1.0     0.019367      0.311251      0.955863     Biso  1.000000 N
   N          1.0     0.980632      0.811251      0.544136     Biso  1.000000 N
   N          1.0     0.003265      0.791781      0.058704     Biso  1.000000 N
   N          1.0     0.996734      0.291781      0.441295     Biso  1.000000 N
   N          1.0     0.996734      0.208217      0.941294     Biso  1.000000 N
   N          1.0     0.003265      0.708217      0.558704     Biso  1.000000 N
   N          1.0     0.861401      0.844735      0.955945     Biso  1.000000 N
   N          1.0     0.138597      0.344735      0.544054     Biso  1.000000 N
   N          1.0     0.138597      0.155263      0.044054     Biso  1.000000 N
   N          1.0     0.861401      0.655263      0.455945     Biso  1.000000 N
   N          1.0     0.481248      0.702439      0.656940     Biso  1.000000 N
   N          1.0     0.518750      0.202439      0.843059     Biso  1.000000 N
   N          1.0     0.518750      0.297559      0.343059     Biso  1.000000 N
   N          1.0     0.481248      0.797559      0.156940     Biso  1.000000 N
   N          1.0     0.340237      0.858034      0.552204     Biso  1.000000 N
   N          1.0     0.659762      0.358034      0.947795     Biso  1.000000 N
   N          1.0     0.659762      0.141964      0.447795     Biso  1.000000 N
   N          1.0     0.340237      0.641964      0.052204     Biso  1.000000 N
   N          1.0     0.545762      0.978348      0.752447     Biso  1.000000 N
   N          1.0     0.454236      0.478348      0.747551     Biso  1.000000 N
   N          1.0     0.454237      0.021650      0.247551     Biso  1.000000 N
   N          1.0     0.545762      0.521650      0.252447     Biso  1.000000 N
   H          1.0     0.464580      0.041067      0.708830     Biso  1.000000 H
   H          1.0     0.535419      0.541067      0.791169     Biso  1.000000 H
   H          1.0     0.535418      0.958931      0.291169     Biso  1.000000 H
   H          1.0     0.464580      0.458931      0.208830     Biso  1.000000 H
   C          1.0     0.746669      0.770286      0.873360     Biso  1.000000 C
   C          1.0     0.253329      0.270286      0.626639     Biso  1.000000 C
   C          1.0     0.253329      0.229712      0.126638     Biso  1.000000 C
   C          1.0     0.746669      0.729712      0.373360     Biso  1.000000 C
   C          1.0     0.577670      0.783078      0.746393     Biso  1.000000 C
   C          1.0     0.422328      0.283078      0.753606     Biso  1.000000 C
   C          1.0     0.422329      0.216920      0.253606     Biso  1.000000 C
   C          1.0     0.577671      0.716920      0.246394     Biso  1.000000 C
   C          1.0     0.490339      0.881227      0.686764     Biso  1.000000 C
   C          1.0     0.509659      0.381227      0.813235     Biso  1.000000 C
   C          1.0     0.509659      0.118770      0.313235     Biso  1.000000 C
   C          1.0     0.490339      0.618770      0.186764     Biso  1.000000 C
