#======================================================================

# CRYSTAL DATA

#----------------------------------------------------------------------

data_VESTA_phase_1


_chemical_name_common                  '# Quantum Espresso PWSCF output snapsh'
_cell_length_a                         8.00266
_cell_length_b                         12.51629
_cell_length_c                         5.78342
_cell_angle_alpha                      90
_cell_angle_beta                       101.89344
_cell_angle_gamma                      90
_space_group_name_H-M_alt              'P 1'
_space_group_IT_number                 1

loop_
_space_group_symop_operation_xyz
   'x, y, z'

loop_
   _atom_site_label
   _atom_site_occupancy
   _atom_site_fract_x
   _atom_site_fract_y
   _atom_site_fract_z
   _atom_site_adp_type
   _atom_site_B_iso_or_equiv
   _atom_site_type_symbol
   K          1.0     0.903693      0.468330      0.220172     Biso  1.000000 K
   K          1.0     0.096305      0.968330      0.279827     Biso  1.000000 K
   K          1.0     0.096306      0.531669      0.779827     Biso  1.000000 K
   K          1.0     0.903692      0.031669      0.720172     Biso  1.000000 K
   H          1.0     0.793723      0.374864      0.658808     Biso  1.000000 H
   H          1.0     0.206276      0.874864      0.841190     Biso  1.000000 H
   H          1.0     0.206276      0.625135      0.341190     Biso  1.000000 H
   H          1.0     0.793723      0.125134      0.158807     Biso  1.000000 H
   H          1.0     0.777902      0.497419      0.715029     Biso  1.000000 H
   H          1.0     0.222097      0.997419      0.784970     Biso  1.000000 H
   H          1.0     0.222097      0.502580      0.284970     Biso  1.000000 H
   H          1.0     0.777902      0.002580      0.215029     Biso  1.000000 H
   H          1.0     0.642130      0.991966      0.896689     Biso  1.000000 H
   H          1.0     0.357869      0.491966      0.603310     Biso  1.000000 H
   H          1.0     0.357869      0.008032      0.103311     Biso  1.000000 H
   H          1.0     0.642130      0.508032      0.396688     Biso  1.000000 H
   O          1.0     0.747459      0.582060      0.894562     Biso  1.000000 O
   O          1.0     0.252539      0.082059      0.605436     Biso  1.000000 O
   O          1.0     0.252539      0.417939      0.105438     Biso  1.000000 O
   O          1.0     0.747459      0.917940      0.394562     Biso  1.000000 O
   O          1.0     0.801059      0.445901      0.594879     Biso  1.000000 O
   O          1.0     0.198939      0.945902      0.905119     Biso  1.000000 O
   O          1.0     0.198939      0.554097      0.405120     Biso  1.000000 O
   O          1.0     0.801059      0.054096      0.094880     Biso  1.000000 O
   O          1.0     0.333313      0.747312      0.537111     Biso  1.000000 O
   O          1.0     0.666684      0.247312      0.962888     Biso  1.000000 O
   O          1.0     0.666684      0.252687      0.462888     Biso  1.000000 O
   O          1.0     0.333314      0.752687      0.037110     Biso  1.000000 O
   N          1.0     0.819436      0.674645      0.928204     Biso  1.000000 N
   N          1.0     0.180563      0.174645      0.571795     Biso  1.000000 N
   N          1.0     0.180563      0.325354      0.071795     Biso  1.000000 N
   N          1.0     0.819436      0.825354      0.428204     Biso  1.000000 N
   N          1.0     0.981370      0.688794      0.044923     Biso  1.000000 N
   N          1.0     0.018629      0.188793      0.455076     Biso  1.000000 N
   N          1.0     0.018629      0.311205      0.955076     Biso  1.000000 N
   N          1.0     0.981370      0.811205      0.544922     Biso  1.000000 N
   N          1.0     0.004165      0.791954      0.059793     Biso  1.000000 N
   N          1.0     0.995834      0.291953      0.440206     Biso  1.000000 N
   N          1.0     0.995834      0.208045      0.940205     Biso  1.000000 N
   N          1.0     0.004165      0.708046      0.559793     Biso  1.000000 N
   N          1.0     0.861989      0.845113      0.956733     Biso  1.000000 N
   N          1.0     0.138008      0.345113      0.543266     Biso  1.000000 N
   N          1.0     0.138008      0.154886      0.043266     Biso  1.000000 N
   N          1.0     0.861990      0.654886      0.456733     Biso  1.000000 N
   N          1.0     0.481114      0.702394      0.656329     Biso  1.000000 N
   N          1.0     0.518883      0.202394      0.843670     Biso  1.000000 N
   N          1.0     0.518883      0.297605      0.343670     Biso  1.000000 N
   N          1.0     0.481115      0.797605      0.156329     Biso  1.000000 N
   N          1.0     0.339803      0.858209      0.550658     Biso  1.000000 N
   N          1.0     0.660196      0.358208      0.949341     Biso  1.000000 N
   N          1.0     0.660196      0.141790      0.449341     Biso  1.000000 N
   N          1.0     0.339803      0.641790      0.050658     Biso  1.000000 N
   N          1.0     0.545658      0.978610      0.752886     Biso  1.000000 N
   N          1.0     0.454340      0.478609      0.747112     Biso  1.000000 N
   N          1.0     0.454341      0.021389      0.247112     Biso  1.000000 N
   N          1.0     0.545658      0.521390      0.252886     Biso  1.000000 N
   H          1.0     0.464598      0.041600      0.709320     Biso  1.000000 H
   H          1.0     0.535401      0.541600      0.790679     Biso  1.000000 H
   H          1.0     0.535400      0.958399      0.290679     Biso  1.000000 H
   H          1.0     0.464598      0.458399      0.209320     Biso  1.000000 H
   C          1.0     0.746943      0.770614      0.873710     Biso  1.000000 C
   C          1.0     0.253055      0.270614      0.626288     Biso  1.000000 C
   C          1.0     0.253055      0.229385      0.126288     Biso  1.000000 C
   C          1.0     0.746943      0.729385      0.373710     Biso  1.000000 C
   C          1.0     0.577596      0.783235      0.746208     Biso  1.000000 C
   C          1.0     0.422402      0.283235      0.753790     Biso  1.000000 C
   C          1.0     0.422403      0.216763      0.253790     Biso  1.000000 C
   C          1.0     0.577597      0.716764      0.246210     Biso  1.000000 C
   C          1.0     0.490118      0.881476      0.686233     Biso  1.000000 C
   C          1.0     0.509880      0.381476      0.813766     Biso  1.000000 C
   C          1.0     0.509880      0.118522      0.313766     Biso  1.000000 C
   C          1.0     0.490118      0.618522      0.186233     Biso  1.000000 C
