#======================================================================

# CRYSTAL DATA

#----------------------------------------------------------------------

data_VESTA_phase_1


_chemical_name_common                  '# Quantum Espresso PWSCF output snapsh'
_cell_length_a                         7.95763
_cell_length_b                         12.47047
_cell_length_c                         5.72788
_cell_angle_alpha                      90
_cell_angle_beta                       101.83961
_cell_angle_gamma                      90
_space_group_name_H-M_alt              'P 1'
_space_group_IT_number                 1

loop_
_space_group_symop_operation_xyz
   'x, y, z'

loop_
   _atom_site_label
   _atom_site_occupancy
   _atom_site_fract_x
   _atom_site_fract_y
   _atom_site_fract_z
   _atom_site_adp_type
   _atom_site_B_iso_or_equiv
   _atom_site_type_symbol
   K          1.0     0.904725      0.468851      0.219884     Biso  1.000000 K
   K          1.0     0.095272      0.968850      0.280115     Biso  1.000000 K
   K          1.0     0.095271      0.531149      0.780114     Biso  1.000000 K
   K          1.0     0.904723      0.031149      0.719884     Biso  1.000000 K
   H          1.0     0.793423      0.374052      0.659607     Biso  1.000000 H
   H          1.0     0.206572      0.874052      0.840390     Biso  1.000000 H
   H          1.0     0.206573      0.625947      0.340391     Biso  1.000000 H
   H          1.0     0.793424      0.125945      0.159606     Biso  1.000000 H
   H          1.0     0.777622      0.497112      0.716305     Biso  1.000000 H
   H          1.0     0.222374      0.997112      0.783693     Biso  1.000000 H
   H          1.0     0.222375      0.502887      0.283694     Biso  1.000000 H
   H          1.0     0.777622      0.002887      0.216306     Biso  1.000000 H
   H          1.0     0.642971      0.992402      0.898188     Biso  1.000000 H
   H          1.0     0.357025      0.492403      0.601810     Biso  1.000000 H
   H          1.0     0.357026      0.007595      0.101812     Biso  1.000000 H
   H          1.0     0.642971      0.507595      0.398187     Biso  1.000000 H
   O          1.0     0.746933      0.582416      0.894746     Biso  1.000000 O
   O          1.0     0.253062      0.082416      0.605250     Biso  1.000000 O
   O          1.0     0.253062      0.417583      0.105253     Biso  1.000000 O
   O          1.0     0.746934      0.917583      0.394746     Biso  1.000000 O
   O          1.0     0.800840      0.445333      0.595171     Biso  1.000000 O
   O          1.0     0.199154      0.945334      0.904825     Biso  1.000000 O
   O          1.0     0.199156      0.554665      0.404827     Biso  1.000000 O
   O          1.0     0.800842      0.054665      0.095173     Biso  1.000000 O
   O          1.0     0.332439      0.747321      0.534588     Biso  1.000000 O
   O          1.0     0.667555      0.247321      0.965411     Biso  1.000000 O
   O          1.0     0.667556      0.252677      0.465411     Biso  1.000000 O
   O          1.0     0.332441      0.752678      0.034586     Biso  1.000000 O
   N          1.0     0.820064      0.674977      0.928869     Biso  1.000000 N
   N          1.0     0.179932      0.174978      0.571128     Biso  1.000000 N
   N          1.0     0.179933      0.325021      0.071129     Biso  1.000000 N
   N          1.0     0.820065      0.825022      0.428869     Biso  1.000000 N
   N          1.0     0.982779      0.688895      0.046441     Biso  1.000000 N
   N          1.0     0.017220      0.188894      0.453558     Biso  1.000000 N
   N          1.0     0.017218      0.311103      0.953558     Biso  1.000000 N
   N          1.0     0.982777      0.811104      0.546439     Biso  1.000000 N
   N          1.0     0.005867      0.792289      0.061888     Biso  1.000000 N
   N          1.0     0.994130      0.292288      0.438110     Biso  1.000000 N
   N          1.0     0.994128      0.207709      0.938109     Biso  1.000000 N
   N          1.0     0.005866      0.707711      0.561889     Biso  1.000000 N
   N          1.0     0.863094      0.845831      0.958234     Biso  1.000000 N
   N          1.0     0.136899      0.345830      0.541763     Biso  1.000000 N
   N          1.0     0.136901      0.154168      0.041764     Biso  1.000000 N
   N          1.0     0.863096      0.654168      0.458235     Biso  1.000000 N
   N          1.0     0.480872      0.702288      0.655133     Biso  1.000000 N
   N          1.0     0.519122      0.202289      0.844865     Biso  1.000000 N
   N          1.0     0.519123      0.297710      0.344865     Biso  1.000000 N
   N          1.0     0.480874      0.797711      0.155134     Biso  1.000000 N
   N          1.0     0.338995      0.858514      0.547698     Biso  1.000000 N
   N          1.0     0.661001      0.358513      0.952299     Biso  1.000000 N
   N          1.0     0.661002      0.141484      0.452300     Biso  1.000000 N
   N          1.0     0.338995      0.641485      0.047699     Biso  1.000000 N
   N          1.0     0.545481      0.979066      0.753748     Biso  1.000000 N
   N          1.0     0.454512      0.479066      0.746249     Biso  1.000000 N
   N          1.0     0.454515      0.020933      0.246250     Biso  1.000000 N
   N          1.0     0.545483      0.520933      0.253748     Biso  1.000000 N
   H          1.0     0.464670      0.042582      0.710373     Biso  1.000000 H
   H          1.0     0.535326      0.542582      0.789625     Biso  1.000000 H
   H          1.0     0.535326      0.957417      0.289626     Biso  1.000000 H
   H          1.0     0.464671      0.457417      0.210373     Biso  1.000000 H
   C          1.0     0.747463      0.771232      0.874382     Biso  1.000000 C
   C          1.0     0.252532      0.271233      0.625615     Biso  1.000000 C
   C          1.0     0.252533      0.228767      0.125615     Biso  1.000000 C
   C          1.0     0.747463      0.728766      0.374383     Biso  1.000000 C
   C          1.0     0.577456      0.783511      0.745852     Biso  1.000000 C
   C          1.0     0.422539      0.283510      0.754144     Biso  1.000000 C
   C          1.0     0.422540      0.216487      0.254145     Biso  1.000000 C
   C          1.0     0.577458      0.716489      0.245855     Biso  1.000000 C
   C          1.0     0.489704      0.881920      0.685221     Biso  1.000000 C
   C          1.0     0.510290      0.381919      0.814778     Biso  1.000000 C
   C          1.0     0.510291      0.118079      0.314778     Biso  1.000000 C
   C          1.0     0.489706      0.618078      0.185221     Biso  1.000000 C
