#======================================================================

# CRYSTAL DATA

#----------------------------------------------------------------------

data_VESTA_phase_1


_chemical_name_common                  '# Quantum Espresso PWSCF output snapsh'
_cell_length_a                         7.93633
_cell_length_b                         12.44879
_cell_length_c                         5.70204
_cell_angle_alpha                      90
_cell_angle_beta                       101.81817
_cell_angle_gamma                      90
_space_group_name_H-M_alt              'P 1'
_space_group_IT_number                 1

loop_
_space_group_symop_operation_xyz
   'x, y, z'

loop_
   _atom_site_label
   _atom_site_occupancy
   _atom_site_fract_x
   _atom_site_fract_y
   _atom_site_fract_z
   _atom_site_adp_type
   _atom_site_B_iso_or_equiv
   _atom_site_type_symbol
   K          1.0     0.905185      0.469091      0.219768     Biso  1.000000 K
   K          1.0     0.094814      0.969089      0.280232     Biso  1.000000 K
   K          1.0     0.094815      0.530906      0.780231     Biso  1.000000 K
   K          1.0     0.905186      0.030908      0.719769     Biso  1.000000 K
   H          1.0     0.793370      0.373685      0.660119     Biso  1.000000 H
   H          1.0     0.206632      0.873684      0.839880     Biso  1.000000 H
   H          1.0     0.206631      0.626311      0.339881     Biso  1.000000 H
   H          1.0     0.793369      0.126310      0.160117     Biso  1.000000 H
   H          1.0     0.777515      0.496989      0.716921     Biso  1.000000 H
   H          1.0     0.222488      0.996988      0.783079     Biso  1.000000 H
   H          1.0     0.222487      0.503007      0.283079     Biso  1.000000 H
   H          1.0     0.777513      0.003009      0.216922     Biso  1.000000 H
   H          1.0     0.643375      0.992577      0.898921     Biso  1.000000 H
   H          1.0     0.356628      0.492580      0.601079     Biso  1.000000 H
   H          1.0     0.356627      0.007417      0.101081     Biso  1.000000 H
   H          1.0     0.643373      0.507416      0.398919     Biso  1.000000 H
   O          1.0     0.746692      0.582586      0.894830     Biso  1.000000 O
   O          1.0     0.253310      0.082587      0.605168     Biso  1.000000 O
   O          1.0     0.253308      0.417411      0.105170     Biso  1.000000 O
   O          1.0     0.746691      0.917410      0.394829     Biso  1.000000 O
   O          1.0     0.800743      0.445070      0.595346     Biso  1.000000 O
   O          1.0     0.199258      0.945069      0.904652     Biso  1.000000 O
   O          1.0     0.199257      0.554926      0.404654     Biso  1.000000 O
   O          1.0     0.800743      0.054927      0.095347     Biso  1.000000 O
   O          1.0     0.332031      0.747315      0.533349     Biso  1.000000 O
   O          1.0     0.667970      0.247317      0.966652     Biso  1.000000 O
   O          1.0     0.667968      0.252680      0.466651     Biso  1.000000 O
   O          1.0     0.332031      0.752680      0.033346     Biso  1.000000 O
   N          1.0     0.820375      0.675133      0.929195     Biso  1.000000 N
   N          1.0     0.179628      0.175135      0.570804     Biso  1.000000 N
   N          1.0     0.179627      0.324863      0.070804     Biso  1.000000 N
   N          1.0     0.820373      0.824863      0.429194     Biso  1.000000 N
   N          1.0     0.983458      0.688946      0.047182     Biso  1.000000 N
   N          1.0     0.016543      0.188946      0.452817     Biso  1.000000 N
   N          1.0     0.016544      0.311050      0.952818     Biso  1.000000 N
   N          1.0     0.983459      0.811050      0.547181     Biso  1.000000 N
   N          1.0     0.006677      0.792450      0.062909     Biso  1.000000 N
   N          1.0     0.993323      0.292451      0.437090     Biso  1.000000 N
   N          1.0     0.993323      0.207545      0.937090     Biso  1.000000 N
   N          1.0     0.006678      0.707546      0.562910     Biso  1.000000 N
   N          1.0     0.863618      0.846169      0.958955     Biso  1.000000 N
   N          1.0     0.136382      0.346169      0.541044     Biso  1.000000 N
   N          1.0     0.136381      0.153828      0.041044     Biso  1.000000 N
   N          1.0     0.863618      0.653826      0.458955     Biso  1.000000 N
   N          1.0     0.480766      0.702224      0.654534     Biso  1.000000 N
   N          1.0     0.519235      0.202227      0.845466     Biso  1.000000 N
   N          1.0     0.519234      0.297771      0.345465     Biso  1.000000 N
   N          1.0     0.480765      0.797771      0.154535     Biso  1.000000 N
   N          1.0     0.338621      0.858645      0.546262     Biso  1.000000 N
   N          1.0     0.661382      0.358646      0.953737     Biso  1.000000 N
   N          1.0     0.661381      0.141350      0.453738     Biso  1.000000 N
   N          1.0     0.338619      0.641350      0.046262     Biso  1.000000 N
   N          1.0     0.545413      0.979262      0.754161     Biso  1.000000 N
   N          1.0     0.454587      0.479263      0.745838     Biso  1.000000 N
   N          1.0     0.454587      0.020735      0.245838     Biso  1.000000 N
   N          1.0     0.545413      0.520733      0.254160     Biso  1.000000 N
   H          1.0     0.464724      0.043031      0.710915     Biso  1.000000 H
   H          1.0     0.535279      0.543030      0.789085     Biso  1.000000 H
   H          1.0     0.535277      0.956966      0.289085     Biso  1.000000 H
   H          1.0     0.464723      0.456967      0.210914     Biso  1.000000 H
   C          1.0     0.747717      0.771520      0.874698     Biso  1.000000 C
   C          1.0     0.252285      0.271522      0.625301     Biso  1.000000 C
   C          1.0     0.252283      0.228477      0.125300     Biso  1.000000 C
   C          1.0     0.747715      0.728474      0.374699     Biso  1.000000 C
   C          1.0     0.577396      0.783628      0.745666     Biso  1.000000 C
   C          1.0     0.422606      0.283628      0.754332     Biso  1.000000 C
   C          1.0     0.422605      0.216368      0.254333     Biso  1.000000 C
   C          1.0     0.577395      0.716369      0.245668     Biso  1.000000 C
   C          1.0     0.489514      0.882114      0.684725     Biso  1.000000 C
   C          1.0     0.510487      0.382114      0.815276     Biso  1.000000 C
   C          1.0     0.510486      0.117882      0.315276     Biso  1.000000 C
   C          1.0     0.489514      0.617880      0.184724     Biso  1.000000 C
