#======================================================================

# CRYSTAL DATA

#----------------------------------------------------------------------

data_VESTA_phase_1


_chemical_name_common                  '# Quantum Espresso PWSCF output snapsh'
_cell_length_a                         8.89598
_cell_length_b                         13.03181
_cell_length_c                         6.56785
_cell_angle_alpha                      90.00002
_cell_angle_beta                       105.37644
_cell_angle_gamma                      89.99999
_space_group_name_H-M_alt              'P 1'
_space_group_IT_number                 1

loop_
_space_group_symop_operation_xyz
   'x, y, z'

loop_
   _atom_site_label
   _atom_site_occupancy
   _atom_site_fract_x
   _atom_site_fract_y
   _atom_site_fract_z
   _atom_site_adp_type
   _atom_site_B_iso_or_equiv
   _atom_site_type_symbol
   K          1.0     0.880379      0.459074      0.229046     Biso  1.000000 K
   K          1.0     0.119619      0.959074      0.270953     Biso  1.000000 K
   K          1.0     0.119619      0.540916      0.770953     Biso  1.000000 K
   K          1.0     0.880379      0.040916      0.729046     Biso  1.000000 K
   H          1.0     0.817608      0.386113      0.663923     Biso  1.000000 H
   H          1.0     0.182391      0.886113      0.836076     Biso  1.000000 H
   H          1.0     0.182391      0.613876      0.336076     Biso  1.000000 H
   H          1.0     0.817607      0.113876      0.163924     Biso  1.000000 H
   H          1.0     0.789739      0.500901      0.716638     Biso  1.000000 H
   H          1.0     0.210260      0.000902      0.783362     Biso  1.000000 H
   H          1.0     0.210260      0.499087      0.283362     Biso  1.000000 H
   H          1.0     0.789739      0.999087      0.216637     Biso  1.000000 H
   H          1.0     0.642263      0.979679      0.891924     Biso  1.000000 H
   H          1.0     0.357735      0.479679      0.608076     Biso  1.000000 H
   H          1.0     0.357735      0.020310      0.108076     Biso  1.000000 H
   H          1.0     0.642263      0.520310      0.391924     Biso  1.000000 H
   O          1.0     0.744868      0.579287      0.888513     Biso  1.000000 O
   O          1.0     0.255131      0.079287      0.611487     Biso  1.000000 O
   O          1.0     0.255131      0.420702      0.111486     Biso  1.000000 O
   O          1.0     0.744867      0.920702      0.388513     Biso  1.000000 O
   O          1.0     0.819124      0.455711      0.610587     Biso  1.000000 O
   O          1.0     0.180873      0.955711      0.889413     Biso  1.000000 O
   O          1.0     0.180874      0.544279      0.389413     Biso  1.000000 O
   O          1.0     0.819124      0.044279      0.110587     Biso  1.000000 O
   O          1.0     0.344613      0.748556      0.562737     Biso  1.000000 O
   O          1.0     0.655386      0.248556      0.937262     Biso  1.000000 O
   O          1.0     0.655387      0.251433      0.437263     Biso  1.000000 O
   O          1.0     0.344612      0.751433      0.062736     Biso  1.000000 O
   N          1.0     0.807480      0.670507      0.912346     Biso  1.000000 N
   N          1.0     0.192519      0.170507      0.587654     Biso  1.000000 N
   N          1.0     0.192519      0.329482      0.087654     Biso  1.000000 N
   N          1.0     0.807480      0.829482      0.412345     Biso  1.000000 N
   N          1.0     0.960224      0.686494      0.010406     Biso  1.000000 N
   N          1.0     0.039774      0.186495      0.489595     Biso  1.000000 N
   N          1.0     0.039773      0.313494      0.989595     Biso  1.000000 N
   N          1.0     0.960225      0.813494      0.510405     Biso  1.000000 N
   N          1.0     0.980844      0.786960      0.015796     Biso  1.000000 N
   N          1.0     0.019154      0.286960      0.484203     Biso  1.000000 N
   N          1.0     0.019154      0.213029      0.984202     Biso  1.000000 N
   N          1.0     0.980844      0.713029      0.515797     Biso  1.000000 N
   N          1.0     0.846931      0.836471      0.924244     Biso  1.000000 N
   N          1.0     0.153067      0.336471      0.575756     Biso  1.000000 N
   N          1.0     0.153067      0.163519      0.075756     Biso  1.000000 N
   N          1.0     0.846931      0.663518      0.424245     Biso  1.000000 N
   N          1.0     0.483850      0.703504      0.662185     Biso  1.000000 N
   N          1.0     0.516149      0.203503      0.837815     Biso  1.000000 N
   N          1.0     0.516150      0.296487      0.337815     Biso  1.000000 N
   N          1.0     0.483848      0.796486      0.162185     Biso  1.000000 N
   N          1.0     0.351872      0.855688      0.588238     Biso  1.000000 N
   N          1.0     0.648126      0.355688      0.911761     Biso  1.000000 N
   N          1.0     0.648126      0.144302      0.411761     Biso  1.000000 N
   N          1.0     0.351872      0.644302      0.088238     Biso  1.000000 N
   N          1.0     0.551208      0.970752      0.760022     Biso  1.000000 N
   N          1.0     0.448790      0.470752      0.739977     Biso  1.000000 N
   N          1.0     0.448790      0.029237      0.239977     Biso  1.000000 N
   N          1.0     0.551208      0.529237      0.260022     Biso  1.000000 N
   H          1.0     0.472913      0.030074      0.728892     Biso  1.000000 H
   H          1.0     0.527086      0.530074      0.771108     Biso  1.000000 H
   H          1.0     0.527086      0.969916      0.271108     Biso  1.000000 H
   H          1.0     0.472913      0.469916      0.228891     Biso  1.000000 H
   C          1.0     0.738327      0.763470      0.858671     Biso  1.000000 C
   C          1.0     0.261672      0.263470      0.641328     Biso  1.000000 C
   C          1.0     0.261672      0.236520      0.141328     Biso  1.000000 C
   C          1.0     0.738326      0.736520      0.358671     Biso  1.000000 C
   C          1.0     0.578105      0.779208      0.747435     Biso  1.000000 C
   C          1.0     0.421893      0.279208      0.752564     Biso  1.000000 C
   C          1.0     0.421894      0.220781      0.252564     Biso  1.000000 C
   C          1.0     0.578104      0.720781      0.247435     Biso  1.000000 C
   C          1.0     0.495789      0.875701      0.702998     Biso  1.000000 C
   C          1.0     0.504209      0.375701      0.797001     Biso  1.000000 C
   C          1.0     0.504209      0.124288      0.297001     Biso  1.000000 C
   C          1.0     0.495789      0.624288      0.202998     Biso  1.000000 C
