#======================================================================

# CRYSTAL DATA

#----------------------------------------------------------------------

data_VESTA_phase_1


_chemical_name_common                  '# Quantum Espresso PWSCF output snapsh'
_cell_length_a                         8.66556
_cell_length_b                         12.96044
_cell_length_c                         6.40884
_cell_angle_alpha                      89.99997
_cell_angle_beta                       104.16967
_cell_angle_gamma                      90.00001
_space_group_name_H-M_alt              'P 1'
_space_group_IT_number                 1

loop_
_space_group_symop_operation_xyz
   'x, y, z'

loop_
   _atom_site_label
   _atom_site_occupancy
   _atom_site_fract_x
   _atom_site_fract_y
   _atom_site_fract_z
   _atom_site_adp_type
   _atom_site_B_iso_or_equiv
   _atom_site_type_symbol
   K          1.0     0.885914      0.461083      0.227038     Biso  1.000000 K
   K          1.0     0.114077      0.961082      0.272957     Biso  1.000000 K
   K          1.0     0.114077      0.538908      0.772958     Biso  1.000000 K
   K          1.0     0.885914      0.038908      0.727039     Biso  1.000000 K
   H          1.0     0.810383      0.384002      0.661888     Biso  1.000000 H
   H          1.0     0.189607      0.884002      0.838108     Biso  1.000000 H
   H          1.0     0.189607      0.615989      0.338109     Biso  1.000000 H
   H          1.0     0.810383      0.115988      0.161889     Biso  1.000000 H
   H          1.0     0.786220      0.500518      0.713853     Biso  1.000000 H
   H          1.0     0.213770      0.000518      0.786143     Biso  1.000000 H
   H          1.0     0.213771      0.499472      0.286143     Biso  1.000000 H
   H          1.0     0.786221      0.999472      0.213854     Biso  1.000000 H
   H          1.0     0.640173      0.982407      0.890965     Biso  1.000000 H
   H          1.0     0.359818      0.482407      0.609032     Biso  1.000000 H
   H          1.0     0.359818      0.017583      0.109032     Biso  1.000000 H
   H          1.0     0.640173      0.517583      0.390964     Biso  1.000000 H
   O          1.0     0.746220      0.579566      0.890763     Biso  1.000000 O
   O          1.0     0.253771      0.079566      0.609233     Biso  1.000000 O
   O          1.0     0.253771      0.420424      0.109234     Biso  1.000000 O
   O          1.0     0.746220      0.920425      0.390763     Biso  1.000000 O
   O          1.0     0.812981      0.453373      0.604786     Biso  1.000000 O
   O          1.0     0.187010      0.953373      0.895210     Biso  1.000000 O
   O          1.0     0.187010      0.546617      0.395210     Biso  1.000000 O
   O          1.0     0.812981      0.046617      0.104787     Biso  1.000000 O
   O          1.0     0.342819      0.747981      0.557988     Biso  1.000000 O
   O          1.0     0.657172      0.247981      0.942008     Biso  1.000000 O
   O          1.0     0.657172      0.252009      0.442008     Biso  1.000000 O
   O          1.0     0.342819      0.752009      0.057989     Biso  1.000000 O
   N          1.0     0.810014      0.671151      0.917374     Biso  1.000000 N
   N          1.0     0.189977      0.171151      0.582622     Biso  1.000000 N
   N          1.0     0.189977      0.328840      0.082623     Biso  1.000000 N
   N          1.0     0.810014      0.828839      0.417375     Biso  1.000000 N
   N          1.0     0.964305      0.686895      0.020892     Biso  1.000000 N
   N          1.0     0.035686      0.186896      0.479104     Biso  1.000000 N
   N          1.0     0.035686      0.313095      0.979104     Biso  1.000000 N
   N          1.0     0.964306      0.813094      0.520893     Biso  1.000000 N
   N          1.0     0.985248      0.787719      0.028795     Biso  1.000000 N
   N          1.0     0.014743      0.287720      0.471202     Biso  1.000000 N
   N          1.0     0.014743      0.212271      0.971202     Biso  1.000000 N
   N          1.0     0.985248      0.712271      0.528794     Biso  1.000000 N
   N          1.0     0.849879      0.837739      0.933871     Biso  1.000000 N
   N          1.0     0.150112      0.337739      0.566125     Biso  1.000000 N
   N          1.0     0.150112      0.162251      0.066126     Biso  1.000000 N
   N          1.0     0.849879      0.662252      0.433871     Biso  1.000000 N
   N          1.0     0.483611      0.703201      0.662232     Biso  1.000000 N
   N          1.0     0.516380      0.203201      0.837764     Biso  1.000000 N
   N          1.0     0.516380      0.296789      0.337764     Biso  1.000000 N
   N          1.0     0.483611      0.796789      0.162233     Biso  1.000000 N
   N          1.0     0.349600      0.855707      0.580327     Biso  1.000000 N
   N          1.0     0.650391      0.355706      0.919670     Biso  1.000000 N
   N          1.0     0.650391      0.144284      0.419669     Biso  1.000000 N
   N          1.0     0.349600      0.644284      0.080328     Biso  1.000000 N
   N          1.0     0.549706      0.972120      0.755932     Biso  1.000000 N
   N          1.0     0.450285      0.472120      0.744066     Biso  1.000000 N
   N          1.0     0.450284      0.027870      0.244065     Biso  1.000000 N
   N          1.0     0.549707      0.527870      0.255932     Biso  1.000000 N
   H          1.0     0.469994      0.031714      0.720569     Biso  1.000000 H
   H          1.0     0.529997      0.531714      0.779428     Biso  1.000000 H
   H          1.0     0.529996      0.968277      0.279428     Biso  1.000000 H
   H          1.0     0.469994      0.468277      0.220568     Biso  1.000000 H
   C          1.0     0.740159      0.764522      0.863243     Biso  1.000000 C
   C          1.0     0.259832      0.264522      0.636754     Biso  1.000000 C
   C          1.0     0.259832      0.235468      0.136754     Biso  1.000000 C
   C          1.0     0.740160      0.735468      0.363243     Biso  1.000000 C
   C          1.0     0.578248      0.779832      0.747762     Biso  1.000000 C
   C          1.0     0.421743      0.279832      0.752235     Biso  1.000000 C
   C          1.0     0.421743      0.220158      0.252235     Biso  1.000000 C
   C          1.0     0.578247      0.720158      0.247761     Biso  1.000000 C
   C          1.0     0.494697      0.876515      0.698953     Biso  1.000000 C
   C          1.0     0.505294      0.376515      0.801043     Biso  1.000000 C
   C          1.0     0.505294      0.123475      0.301044     Biso  1.000000 C
   C          1.0     0.494697      0.623476      0.198953     Biso  1.000000 C
