#======================================================================

# CRYSTAL DATA

#----------------------------------------------------------------------

data_VESTA_phase_1


_chemical_name_common                  '# Quantum Espresso PWSCF output snapsh'
_cell_length_a                         7.87633
_cell_length_b                         12.38853
_cell_length_c                         5.63034
_cell_angle_alpha                      90.00004
_cell_angle_beta                       101.76357
_cell_angle_gamma                      90.00002
_space_group_name_H-M_alt              'P 1'
_space_group_IT_number                 1

loop_
_space_group_symop_operation_xyz
   'x, y, z'

loop_
   _atom_site_label
   _atom_site_occupancy
   _atom_site_fract_x
   _atom_site_fract_y
   _atom_site_fract_z
   _atom_site_adp_type
   _atom_site_B_iso_or_equiv
   _atom_site_type_symbol
   K          1.0     0.906369      0.469754      0.219472     Biso  1.000000 K
   K          1.0     0.093634      0.969754      0.280530     Biso  1.000000 K
   K          1.0     0.093634      0.530238      0.780529     Biso  1.000000 K
   K          1.0     0.906370      0.030238      0.719473     Biso  1.000000 K
   H          1.0     0.793544      0.372737      0.662119     Biso  1.000000 H
   H          1.0     0.206461      0.872736      0.837881     Biso  1.000000 H
   H          1.0     0.206461      0.627254      0.337882     Biso  1.000000 H
   H          1.0     0.793543      0.127253      0.162117     Biso  1.000000 H
   H          1.0     0.777272      0.496737      0.718620     Biso  1.000000 H
   H          1.0     0.222734      0.996737      0.781381     Biso  1.000000 H
   H          1.0     0.222735      0.503255      0.281381     Biso  1.000000 H
   H          1.0     0.777271      0.003255      0.218620     Biso  1.000000 H
   H          1.0     0.644486      0.992980      0.901009     Biso  1.000000 H
   H          1.0     0.355519      0.492980      0.598992     Biso  1.000000 H
   H          1.0     0.355520      0.007010      0.098994     Biso  1.000000 H
   H          1.0     0.644485      0.507011      0.401007     Biso  1.000000 H
   O          1.0     0.746021      0.583090      0.895020     Biso  1.000000 O
   O          1.0     0.253983      0.083090      0.604981     Biso  1.000000 O
   O          1.0     0.253983      0.416902      0.104981     Biso  1.000000 O
   O          1.0     0.746021      0.916902      0.395018     Biso  1.000000 O
   O          1.0     0.800462      0.444349      0.595918     Biso  1.000000 O
   O          1.0     0.199542      0.944349      0.904082     Biso  1.000000 O
   O          1.0     0.199541      0.555643      0.404082     Biso  1.000000 O
   O          1.0     0.800463      0.055642      0.095918     Biso  1.000000 O
   O          1.0     0.330876      0.747272      0.529737     Biso  1.000000 O
   O          1.0     0.669128      0.247273      0.970263     Biso  1.000000 O
   O          1.0     0.669127      0.252718      0.470264     Biso  1.000000 O
   O          1.0     0.330877      0.752719      0.029736     Biso  1.000000 O
   N          1.0     0.821266      0.675584      0.930105     Biso  1.000000 N
   N          1.0     0.178740      0.175585      0.569895     Biso  1.000000 N
   N          1.0     0.178741      0.324407      0.069897     Biso  1.000000 N
   N          1.0     0.821265      0.824408      0.430103     Biso  1.000000 N
   N          1.0     0.985396      0.689123      0.049299     Biso  1.000000 N
   N          1.0     0.014611      0.189123      0.450703     Biso  1.000000 N
   N          1.0     0.014611      0.310868      0.950703     Biso  1.000000 N
   N          1.0     0.985396      0.810867      0.549298     Biso  1.000000 N
   N          1.0     0.008942      0.792934      0.065818     Biso  1.000000 N
   N          1.0     0.991063      0.292935      0.434182     Biso  1.000000 N
   N          1.0     0.991063      0.207056      0.934182     Biso  1.000000 N
   N          1.0     0.008942      0.707057      0.565818     Biso  1.000000 N
   N          1.0     0.865058      0.847127      0.960953     Biso  1.000000 N
   N          1.0     0.134946      0.347126      0.539046     Biso  1.000000 N
   N          1.0     0.134946      0.152865      0.039046     Biso  1.000000 N
   N          1.0     0.865058      0.652863      0.460954     Biso  1.000000 N
   N          1.0     0.480465      0.702012      0.652754     Biso  1.000000 N
   N          1.0     0.519540      0.202014      0.847248     Biso  1.000000 N
   N          1.0     0.519540      0.297978      0.347246     Biso  1.000000 N
   N          1.0     0.480464      0.797979      0.152755     Biso  1.000000 N
   N          1.0     0.337582      0.858972      0.542090     Biso  1.000000 N
   N          1.0     0.662424      0.358973      0.957911     Biso  1.000000 N
   N          1.0     0.662424      0.141018      0.457912     Biso  1.000000 N
   N          1.0     0.337582      0.641018      0.042089     Biso  1.000000 N
   N          1.0     0.545242      0.979753      0.755292     Biso  1.000000 N
   N          1.0     0.454762      0.479753      0.744706     Biso  1.000000 N
   N          1.0     0.454762      0.020239      0.244707     Biso  1.000000 N
   N          1.0     0.545242      0.520239      0.255293     Biso  1.000000 N
   H          1.0     0.464909      0.044239      0.712569     Biso  1.000000 H
   H          1.0     0.535096      0.544239      0.787431     Biso  1.000000 H
   H          1.0     0.535096      0.955753      0.287432     Biso  1.000000 H
   H          1.0     0.464909      0.455753      0.212568     Biso  1.000000 H
   C          1.0     0.748427      0.772326      0.875542     Biso  1.000000 C
   C          1.0     0.251578      0.272326      0.624459     Biso  1.000000 C
   C          1.0     0.251577      0.227666      0.124458     Biso  1.000000 C
   C          1.0     0.748426      0.727665      0.375543     Biso  1.000000 C
   C          1.0     0.577216      0.783920      0.745077     Biso  1.000000 C
   C          1.0     0.422789      0.283920      0.754923     Biso  1.000000 C
   C          1.0     0.422790      0.216072      0.254923     Biso  1.000000 C
   C          1.0     0.577216      0.716072      0.245078     Biso  1.000000 C
   C          1.0     0.488979      0.882618      0.683243     Biso  1.000000 C
   C          1.0     0.511026      0.382616      0.816759     Biso  1.000000 C
   C          1.0     0.511025      0.117373      0.316759     Biso  1.000000 C
   C          1.0     0.488979      0.617373      0.183242     Biso  1.000000 C
