#======================================================================

# CRYSTAL DATA

#----------------------------------------------------------------------

data_VESTA_phase_1


_chemical_name_common                  '# Quantum Espresso PWSCF output snapsh'
_cell_length_a                         7.85745
_cell_length_b                         12.36977
_cell_length_c                         5.60816
_cell_angle_alpha                      90.00002
_cell_angle_beta                       101.74701
_cell_angle_gamma                      89.99992
_space_group_name_H-M_alt              'P 1'
_space_group_IT_number                 1

loop_
_space_group_symop_operation_xyz
   'x, y, z'

loop_
   _atom_site_label
   _atom_site_occupancy
   _atom_site_fract_x
   _atom_site_fract_y
   _atom_site_fract_z
   _atom_site_adp_type
   _atom_site_B_iso_or_equiv
   _atom_site_type_symbol
   K          1.0     0.906714      0.469963      0.219382     Biso  1.000000 K
   K          1.0     0.093295      0.969963      0.280621     Biso  1.000000 K
   K          1.0     0.093294      0.530032      0.780620     Biso  1.000000 K
   K          1.0     0.906715      0.030032      0.719383     Biso  1.000000 K
   H          1.0     0.793710      0.372474      0.662940     Biso  1.000000 H
   H          1.0     0.206300      0.872473      0.837061     Biso  1.000000 H
   H          1.0     0.206300      0.627520      0.337063     Biso  1.000000 H
   H          1.0     0.793710      0.127519      0.162938     Biso  1.000000 H
   H          1.0     0.777216      0.496696      0.719128     Biso  1.000000 H
   H          1.0     0.222796      0.996695      0.780874     Biso  1.000000 H
   H          1.0     0.222797      0.503299      0.280875     Biso  1.000000 H
   H          1.0     0.777215      0.003299      0.219128     Biso  1.000000 H
   H          1.0     0.644829      0.993081      0.901672     Biso  1.000000 H
   H          1.0     0.355183      0.493081      0.598332     Biso  1.000000 H
   H          1.0     0.355183      0.006911      0.098333     Biso  1.000000 H
   H          1.0     0.644827      0.506912      0.401669     Biso  1.000000 H
   O          1.0     0.745814      0.583256      0.895068     Biso  1.000000 O
   O          1.0     0.254195      0.083256      0.604934     Biso  1.000000 O
   O          1.0     0.254195      0.416738      0.104935     Biso  1.000000 O
   O          1.0     0.745814      0.916738      0.395066     Biso  1.000000 O
   O          1.0     0.800376      0.444132      0.596119     Biso  1.000000 O
   O          1.0     0.199634      0.944132      0.903883     Biso  1.000000 O
   O          1.0     0.199633      0.555862      0.403883     Biso  1.000000 O
   O          1.0     0.800377      0.055862      0.096119     Biso  1.000000 O
   O          1.0     0.330505      0.747254      0.528577     Biso  1.000000 O
   O          1.0     0.669505      0.247255      0.971425     Biso  1.000000 O
   O          1.0     0.669504      0.252739      0.471426     Biso  1.000000 O
   O          1.0     0.330506      0.752740      0.028576     Biso  1.000000 O
   N          1.0     0.821547      0.675732      0.930393     Biso  1.000000 N
   N          1.0     0.178464      0.175733      0.569609     Biso  1.000000 N
   N          1.0     0.178465      0.324262      0.069610     Biso  1.000000 N
   N          1.0     0.821546      0.824262      0.430391     Biso  1.000000 N
   N          1.0     0.986005      0.689195      0.049975     Biso  1.000000 N
   N          1.0     0.014008      0.189194      0.450028     Biso  1.000000 N
   N          1.0     0.014008      0.310798      0.950028     Biso  1.000000 N
   N          1.0     0.986005      0.810798      0.549975     Biso  1.000000 N
   N          1.0     0.009636      0.793101      0.066743     Biso  1.000000 N
   N          1.0     0.990374      0.293102      0.433259     Biso  1.000000 N
   N          1.0     0.990374      0.206891      0.933259     Biso  1.000000 N
   N          1.0     0.009636      0.706892      0.566743     Biso  1.000000 N
   N          1.0     0.865488      0.847434      0.961573     Biso  1.000000 N
   N          1.0     0.134522      0.347432      0.538429     Biso  1.000000 N
   N          1.0     0.134522      0.152561      0.038428     Biso  1.000000 N
   N          1.0     0.865487      0.652559      0.461573     Biso  1.000000 N
   N          1.0     0.480362      0.701937      0.652172     Biso  1.000000 N
   N          1.0     0.519648      0.201938      0.847831     Biso  1.000000 N
   N          1.0     0.519649      0.298055      0.347829     Biso  1.000000 N
   N          1.0     0.480361      0.798057      0.152174     Biso  1.000000 N
   N          1.0     0.337256      0.859066      0.540752     Biso  1.000000 N
   N          1.0     0.662755      0.359066      0.959250     Biso  1.000000 N
   N          1.0     0.662755      0.140927      0.459252     Biso  1.000000 N
   N          1.0     0.337257      0.640927      0.040752     Biso  1.000000 N
   N          1.0     0.545197      0.979891      0.755634     Biso  1.000000 N
   N          1.0     0.454810      0.479891      0.744363     Biso  1.000000 N
   N          1.0     0.454813      0.020103      0.244366     Biso  1.000000 N
   N          1.0     0.545199      0.520104      0.255638     Biso  1.000000 N
   H          1.0     0.464985      0.044605      0.713120     Biso  1.000000 H
   H          1.0     0.535026      0.544606      0.786882     Biso  1.000000 H
   H          1.0     0.535026      0.955389      0.286883     Biso  1.000000 H
   H          1.0     0.464984      0.455389      0.213118     Biso  1.000000 H
   C          1.0     0.748640      0.772578      0.875796     Biso  1.000000 C
   C          1.0     0.251369      0.272578      0.624206     Biso  1.000000 C
   C          1.0     0.251370      0.227416      0.124205     Biso  1.000000 C
   C          1.0     0.748641      0.727415      0.375798     Biso  1.000000 C
   C          1.0     0.577149      0.784002      0.744878     Biso  1.000000 C
   C          1.0     0.422861      0.284002      0.755124     Biso  1.000000 C
   C          1.0     0.422862      0.215993      0.255124     Biso  1.000000 C
   C          1.0     0.577149      0.715992      0.244878     Biso  1.000000 C
   C          1.0     0.488808      0.882765      0.682759     Biso  1.000000 C
   C          1.0     0.511204      0.382763      0.817245     Biso  1.000000 C
   C          1.0     0.511201      0.117229      0.317244     Biso  1.000000 C
   C          1.0     0.488807      0.617228      0.182757     Biso  1.000000 C
