#======================================================================

# CRYSTAL DATA

#----------------------------------------------------------------------

data_VESTA_phase_1


_chemical_name_common                  '# Quantum Espresso PWSCF output snapsh'
_cell_length_a                         7.83896
_cell_length_b                         12.35162
_cell_length_c                         5.58682
_cell_angle_alpha                      90.00002
_cell_angle_beta                       101.72510
_cell_angle_gamma                      89.99999
_space_group_name_H-M_alt              'P 1'
_space_group_IT_number                 1

loop_
_space_group_symop_operation_xyz
   'x, y, z'

loop_
   _atom_site_label
   _atom_site_occupancy
   _atom_site_fract_x
   _atom_site_fract_y
   _atom_site_fract_z
   _atom_site_adp_type
   _atom_site_B_iso_or_equiv
   _atom_site_type_symbol
   K          1.0     0.907039      0.470161      0.219251     Biso  1.000000 K
   K          1.0     0.092969      0.970161      0.280752     Biso  1.000000 K
   K          1.0     0.092968      0.529831      0.780751     Biso  1.000000 K
   K          1.0     0.907040      0.029831      0.719252     Biso  1.000000 K
   H          1.0     0.793848      0.372234      0.663679     Biso  1.000000 H
   H          1.0     0.206161      0.872233      0.836323     Biso  1.000000 H
   H          1.0     0.206161      0.627757      0.336324     Biso  1.000000 H
   H          1.0     0.793848      0.127757      0.163676     Biso  1.000000 H
   H          1.0     0.777148      0.496671      0.719612     Biso  1.000000 H
   H          1.0     0.222863      0.996670      0.780391     Biso  1.000000 H
   H          1.0     0.222864      0.503321      0.280391     Biso  1.000000 H
   H          1.0     0.777147      0.003321      0.219611     Biso  1.000000 H
   H          1.0     0.645194      0.993140      0.902254     Biso  1.000000 H
   H          1.0     0.354816      0.493141      0.597748     Biso  1.000000 H
   H          1.0     0.354817      0.006849      0.097750     Biso  1.000000 H
   H          1.0     0.645193      0.506849      0.402252     Biso  1.000000 H
   O          1.0     0.745577      0.583423      0.895126     Biso  1.000000 O
   O          1.0     0.254432      0.083422      0.604876     Biso  1.000000 O
   O          1.0     0.254431      0.416568      0.104877     Biso  1.000000 O
   O          1.0     0.745576      0.916569      0.395124     Biso  1.000000 O
   O          1.0     0.800302      0.443942      0.596306     Biso  1.000000 O
   O          1.0     0.199707      0.943943      0.903696     Biso  1.000000 O
   O          1.0     0.199706      0.556049      0.403696     Biso  1.000000 O
   O          1.0     0.800303      0.056049      0.096306     Biso  1.000000 O
   O          1.0     0.330091      0.747223      0.527561     Biso  1.000000 O
   O          1.0     0.669918      0.247224      0.972440     Biso  1.000000 O
   O          1.0     0.669917      0.252768      0.472441     Biso  1.000000 O
   O          1.0     0.330092      0.752769      0.027561     Biso  1.000000 O
   N          1.0     0.821776      0.675879      0.930720     Biso  1.000000 N
   N          1.0     0.178234      0.175882      0.569282     Biso  1.000000 N
   N          1.0     0.178235      0.324112      0.069283     Biso  1.000000 N
   N          1.0     0.821775      0.824110      0.430717     Biso  1.000000 N
   N          1.0     0.986544      0.689280      0.050685     Biso  1.000000 N
   N          1.0     0.013467      0.189279      0.449318     Biso  1.000000 N
   N          1.0     0.013468      0.310711      0.949318     Biso  1.000000 N
   N          1.0     0.986544      0.810711      0.550685     Biso  1.000000 N
   N          1.0     0.010244      0.793280      0.067669     Biso  1.000000 N
   N          1.0     0.989766      0.293281      0.432333     Biso  1.000000 N
   N          1.0     0.989765      0.206710      0.932333     Biso  1.000000 N
   N          1.0     0.010243      0.706710      0.567669     Biso  1.000000 N
   N          1.0     0.865839      0.847738      0.962182     Biso  1.000000 N
   N          1.0     0.134171      0.347735      0.537820     Biso  1.000000 N
   N          1.0     0.134170      0.152254      0.037819     Biso  1.000000 N
   N          1.0     0.865837      0.652253      0.462182     Biso  1.000000 N
   N          1.0     0.480202      0.701846      0.651718     Biso  1.000000 N
   N          1.0     0.519806      0.201848      0.848284     Biso  1.000000 N
   N          1.0     0.519808      0.298144      0.348282     Biso  1.000000 N
   N          1.0     0.480202      0.798145      0.151721     Biso  1.000000 N
   N          1.0     0.336922      0.859144      0.539483     Biso  1.000000 N
   N          1.0     0.663089      0.359144      0.960520     Biso  1.000000 N
   N          1.0     0.663088      0.140846      0.460521     Biso  1.000000 N
   N          1.0     0.336922      0.640846      0.039482     Biso  1.000000 N
   N          1.0     0.545173      0.980006      0.755939     Biso  1.000000 N
   N          1.0     0.454836      0.480008      0.744061     Biso  1.000000 N
   N          1.0     0.454836      0.019985      0.244061     Biso  1.000000 N
   N          1.0     0.545172      0.519985      0.255939     Biso  1.000000 N
   H          1.0     0.465095      0.044953      0.713683     Biso  1.000000 H
   H          1.0     0.534914      0.544953      0.786319     Biso  1.000000 H
   H          1.0     0.534915      0.955038      0.286320     Biso  1.000000 H
   H          1.0     0.465095      0.455039      0.213681     Biso  1.000000 H
   C          1.0     0.748793      0.772823      0.876080     Biso  1.000000 C
   C          1.0     0.251210      0.272822      0.623918     Biso  1.000000 C
   C          1.0     0.251216      0.227169      0.123921     Biso  1.000000 C
   C          1.0     0.748799      0.727169      0.376086     Biso  1.000000 C
   C          1.0     0.577037      0.784065      0.744747     Biso  1.000000 C
   C          1.0     0.422976      0.284065      0.755259     Biso  1.000000 C
   C          1.0     0.422972      0.215928      0.255255     Biso  1.000000 C
   C          1.0     0.577033      0.715927      0.244743     Biso  1.000000 C
   C          1.0     0.488622      0.882892      0.682294     Biso  1.000000 C
   C          1.0     0.511386      0.382890      0.817708     Biso  1.000000 C
   C          1.0     0.511386      0.117099      0.317709     Biso  1.000000 C
   C          1.0     0.488624      0.617099      0.182293     Biso  1.000000 C
