#======================================================================

# CRYSTAL DATA

#----------------------------------------------------------------------

data_VESTA_phase_1


_chemical_name_common                  '# Quantum Espresso PWSCF output snapsh'
_cell_length_a                         7.82071
_cell_length_b                         12.33425
_cell_length_c                         5.56633
_cell_angle_alpha                      90.00003
_cell_angle_beta                       101.71324
_cell_angle_gamma                      90.00003
_space_group_name_H-M_alt              'P 1'
_space_group_IT_number                 1

loop_
_space_group_symop_operation_xyz
   'x, y, z'

loop_
   _atom_site_label
   _atom_site_occupancy
   _atom_site_fract_x
   _atom_site_fract_y
   _atom_site_fract_z
   _atom_site_adp_type
   _atom_site_B_iso_or_equiv
   _atom_site_type_symbol
   K          1.0     0.907322      0.470363      0.219212     Biso  1.000000 K
   K          1.0     0.092685      0.970363      0.280791     Biso  1.000000 K
   K          1.0     0.092684      0.529631      0.780790     Biso  1.000000 K
   K          1.0     0.907323      0.029631      0.719213     Biso  1.000000 K
   H          1.0     0.794206      0.372005      0.664790     Biso  1.000000 H
   H          1.0     0.205802      0.872005      0.835212     Biso  1.000000 H
   H          1.0     0.205802      0.627988      0.335213     Biso  1.000000 H
   H          1.0     0.794206      0.127987      0.164787     Biso  1.000000 H
   H          1.0     0.777118      0.496657      0.720043     Biso  1.000000 H
   H          1.0     0.222892      0.996656      0.779958     Biso  1.000000 H
   H          1.0     0.222893      0.503337      0.279959     Biso  1.000000 H
   H          1.0     0.777117      0.003336      0.220043     Biso  1.000000 H
   H          1.0     0.645447      0.993227      0.902939     Biso  1.000000 H
   H          1.0     0.354562      0.493228      0.597063     Biso  1.000000 H
   H          1.0     0.354563      0.006763      0.097065     Biso  1.000000 H
   H          1.0     0.645446      0.506764      0.402937     Biso  1.000000 H
   O          1.0     0.745426      0.583577      0.895121     Biso  1.000000 O
   O          1.0     0.254581      0.083577      0.604880     Biso  1.000000 O
   O          1.0     0.254581      0.416415      0.104882     Biso  1.000000 O
   O          1.0     0.745426      0.916415      0.395120     Biso  1.000000 O
   O          1.0     0.800187      0.443717      0.596517     Biso  1.000000 O
   O          1.0     0.199821      0.943717      0.903484     Biso  1.000000 O
   O          1.0     0.199820      0.556275      0.403485     Biso  1.000000 O
   O          1.0     0.800188      0.056277      0.096517     Biso  1.000000 O
   O          1.0     0.329784      0.747206      0.526276     Biso  1.000000 O
   O          1.0     0.670224      0.247207      0.973725     Biso  1.000000 O
   O          1.0     0.670223      0.252787      0.473726     Biso  1.000000 O
   O          1.0     0.329785      0.752788      0.026276     Biso  1.000000 O
   N          1.0     0.822093      0.676013      0.930937     Biso  1.000000 N
   N          1.0     0.177916      0.176014      0.569064     Biso  1.000000 N
   N          1.0     0.177917      0.323980      0.069066     Biso  1.000000 N
   N          1.0     0.822092      0.823980      0.430935     Biso  1.000000 N
   N          1.0     0.987181      0.689344      0.051289     Biso  1.000000 N
   N          1.0     0.012830      0.189344      0.448714     Biso  1.000000 N
   N          1.0     0.012830      0.310648      0.948714     Biso  1.000000 N
   N          1.0     0.987180      0.810648      0.551289     Biso  1.000000 N
   N          1.0     0.010951      0.793432      0.068531     Biso  1.000000 N
   N          1.0     0.989056      0.293433      0.431471     Biso  1.000000 N
   N          1.0     0.989057      0.206560      0.931471     Biso  1.000000 N
   N          1.0     0.010951      0.706560      0.568531     Biso  1.000000 N
   N          1.0     0.866284      0.848015      0.962736     Biso  1.000000 N
   N          1.0     0.133724      0.348013      0.537265     Biso  1.000000 N
   N          1.0     0.133724      0.151979      0.037264     Biso  1.000000 N
   N          1.0     0.866283      0.651977      0.462737     Biso  1.000000 N
   N          1.0     0.480152      0.701772      0.650999     Biso  1.000000 N
   N          1.0     0.519857      0.201774      0.849003     Biso  1.000000 N
   N          1.0     0.519858      0.298219      0.349001     Biso  1.000000 N
   N          1.0     0.480150      0.798221      0.151001     Biso  1.000000 N
   N          1.0     0.336637      0.859223      0.538124     Biso  1.000000 N
   N          1.0     0.663373      0.359223      0.961879     Biso  1.000000 N
   N          1.0     0.663372      0.140769      0.461880     Biso  1.000000 N
   N          1.0     0.336637      0.640769      0.038122     Biso  1.000000 N
   N          1.0     0.545121      0.980123      0.756254     Biso  1.000000 N
   N          1.0     0.454887      0.480124      0.743747     Biso  1.000000 N
   N          1.0     0.454887      0.019869      0.243746     Biso  1.000000 N
   N          1.0     0.545120      0.519871      0.256253     Biso  1.000000 N
   H          1.0     0.465135      0.045276      0.714202     Biso  1.000000 H
   H          1.0     0.534874      0.545276      0.785800     Biso  1.000000 H
   H          1.0     0.534875      0.954717      0.285801     Biso  1.000000 H
   H          1.0     0.465134      0.454717      0.214200     Biso  1.000000 H
   C          1.0     0.749042      0.773049      0.876249     Biso  1.000000 C
   C          1.0     0.250966      0.273049      0.623753     Biso  1.000000 C
   C          1.0     0.250966      0.226944      0.123751     Biso  1.000000 C
   C          1.0     0.749042      0.726944      0.376251     Biso  1.000000 C
   C          1.0     0.577011      0.784135      0.744449     Biso  1.000000 C
   C          1.0     0.422997      0.284134      0.755552     Biso  1.000000 C
   C          1.0     0.422997      0.215860      0.255552     Biso  1.000000 C
   C          1.0     0.577011      0.715859      0.244449     Biso  1.000000 C
   C          1.0     0.488476      0.883019      0.681780     Biso  1.000000 C
   C          1.0     0.511532      0.383019      0.818221     Biso  1.000000 C
   C          1.0     0.511531      0.116973      0.318223     Biso  1.000000 C
   C          1.0     0.488477      0.616972      0.181780     Biso  1.000000 C
