#======================================================================

# CRYSTAL DATA

#----------------------------------------------------------------------

data_VESTA_phase_1


_chemical_name_common                  '# Quantum Espresso PWSCF output snapsh'
_cell_length_a                         7.80301
_cell_length_b                         12.31724
_cell_length_c                         5.54639
_cell_angle_alpha                      89.99994
_cell_angle_beta                       101.69495
_cell_angle_gamma                      89.99992
_space_group_name_H-M_alt              'P 1'
_space_group_IT_number                 1

loop_
_space_group_symop_operation_xyz
   'x, y, z'

loop_
   _atom_site_label
   _atom_site_occupancy
   _atom_site_fract_x
   _atom_site_fract_y
   _atom_site_fract_z
   _atom_site_adp_type
   _atom_site_B_iso_or_equiv
   _atom_site_type_symbol
   K          1.0     0.907599      0.470550      0.219116     Biso  1.000000 K
   K          1.0     0.092406      0.970550      0.280885     Biso  1.000000 K
   K          1.0     0.092406      0.529439      0.780885     Biso  1.000000 K
   K          1.0     0.907599      0.029439      0.719116     Biso  1.000000 K
   H          1.0     0.794468      0.371808      0.665758     Biso  1.000000 H
   H          1.0     0.205537      0.871808      0.834242     Biso  1.000000 H
   H          1.0     0.205536      0.628180      0.334242     Biso  1.000000 H
   H          1.0     0.794468      0.128180      0.165758     Biso  1.000000 H
   H          1.0     0.777079      0.496668      0.720459     Biso  1.000000 H
   H          1.0     0.222926      0.996668      0.779542     Biso  1.000000 H
   H          1.0     0.222926      0.503320      0.279542     Biso  1.000000 H
   H          1.0     0.777079      0.003320      0.220459     Biso  1.000000 H
   H          1.0     0.645741      0.993284      0.903536     Biso  1.000000 H
   H          1.0     0.354264      0.493284      0.596465     Biso  1.000000 H
   H          1.0     0.354264      0.006705      0.096465     Biso  1.000000 H
   H          1.0     0.645741      0.506705      0.403536     Biso  1.000000 H
   O          1.0     0.745237      0.583734      0.895156     Biso  1.000000 O
   O          1.0     0.254768      0.083734      0.604845     Biso  1.000000 O
   O          1.0     0.254768      0.416254      0.104844     Biso  1.000000 O
   O          1.0     0.745237      0.916254      0.395156     Biso  1.000000 O
   O          1.0     0.800084      0.443530      0.596703     Biso  1.000000 O
   O          1.0     0.199921      0.943530      0.903298     Biso  1.000000 O
   O          1.0     0.199921      0.556459      0.403298     Biso  1.000000 O
   O          1.0     0.800084      0.056459      0.096703     Biso  1.000000 O
   O          1.0     0.329416      0.747179      0.525181     Biso  1.000000 O
   O          1.0     0.670590      0.247179      0.974819     Biso  1.000000 O
   O          1.0     0.670589      0.252809      0.474819     Biso  1.000000 O
   O          1.0     0.329416      0.752809      0.025182     Biso  1.000000 O
   N          1.0     0.822346      0.676151      0.931212     Biso  1.000000 N
   N          1.0     0.177659      0.176151      0.568788     Biso  1.000000 N
   N          1.0     0.177659      0.323838      0.068789     Biso  1.000000 N
   N          1.0     0.822345      0.823837      0.431212     Biso  1.000000 N
   N          1.0     0.987728      0.689431      0.051950     Biso  1.000000 N
   N          1.0     0.012277      0.189431      0.448051     Biso  1.000000 N
   N          1.0     0.012277      0.310558      0.948051     Biso  1.000000 N
   N          1.0     0.987728      0.810557      0.551950     Biso  1.000000 N
   N          1.0     0.011544      0.793607      0.069416     Biso  1.000000 N
   N          1.0     0.988461      0.293607      0.430585     Biso  1.000000 N
   N          1.0     0.988461      0.206381      0.930585     Biso  1.000000 N
   N          1.0     0.011544      0.706381      0.569416     Biso  1.000000 N
   N          1.0     0.866623      0.848298      0.963302     Biso  1.000000 N
   N          1.0     0.133382      0.348298      0.536698     Biso  1.000000 N
   N          1.0     0.133382      0.151691      0.036698     Biso  1.000000 N
   N          1.0     0.866622      0.651691      0.463302     Biso  1.000000 N
   N          1.0     0.480023      0.701685      0.650450     Biso  1.000000 N
   N          1.0     0.519982      0.201685      0.849551     Biso  1.000000 N
   N          1.0     0.519982      0.298304      0.349551     Biso  1.000000 N
   N          1.0     0.480023      0.798303      0.150450     Biso  1.000000 N
   N          1.0     0.336332      0.859293      0.536866     Biso  1.000000 N
   N          1.0     0.663674      0.359292      0.963136     Biso  1.000000 N
   N          1.0     0.663673      0.140696      0.463135     Biso  1.000000 N
   N          1.0     0.336332      0.640696      0.036866     Biso  1.000000 N
   N          1.0     0.545084      0.980226      0.756542     Biso  1.000000 N
   N          1.0     0.454922      0.480224      0.743461     Biso  1.000000 N
   N          1.0     0.454920      0.019762      0.243458     Biso  1.000000 N
   N          1.0     0.545084      0.519763      0.256542     Biso  1.000000 N
   H          1.0     0.465231      0.045599      0.714730     Biso  1.000000 H
   H          1.0     0.534775      0.545600      0.785271     Biso  1.000000 H
   H          1.0     0.534774      0.954389      0.285271     Biso  1.000000 H
   H          1.0     0.465230      0.454389      0.214730     Biso  1.000000 H
   C          1.0     0.749212      0.773271      0.876468     Biso  1.000000 C
   C          1.0     0.250794      0.273272      0.623534     Biso  1.000000 C
   C          1.0     0.250793      0.226718      0.123533     Biso  1.000000 C
   C          1.0     0.749213      0.726717      0.376468     Biso  1.000000 C
   C          1.0     0.576925      0.784187      0.744241     Biso  1.000000 C
   C          1.0     0.423078      0.284186      0.755759     Biso  1.000000 C
   C          1.0     0.423080      0.215801      0.255760     Biso  1.000000 C
   C          1.0     0.576925      0.715802      0.244240     Biso  1.000000 C
   C          1.0     0.488311      0.883135      0.681305     Biso  1.000000 C
   C          1.0     0.511693      0.383137      0.818694     Biso  1.000000 C
   C          1.0     0.511695      0.116855      0.318697     Biso  1.000000 C
   C          1.0     0.488311      0.616854      0.181305     Biso  1.000000 C
