#======================================================================

# CRYSTAL DATA

#----------------------------------------------------------------------

data_VESTA_phase_1


_chemical_name_common                  '# Quantum Espresso PWSCF output snapsh'
_cell_length_a                         7.75153
_cell_length_b                         12.26928
_cell_length_c                         5.49063
_cell_angle_alpha                      90
_cell_angle_beta                       101.63725
_cell_angle_gamma                      90.00021
_space_group_name_H-M_alt              'P 1'
_space_group_IT_number                 1

loop_
_space_group_symop_operation_xyz
   'x, y, z'

loop_
   _atom_site_label
   _atom_site_occupancy
   _atom_site_fract_x
   _atom_site_fract_y
   _atom_site_fract_z
   _atom_site_adp_type
   _atom_site_B_iso_or_equiv
   _atom_site_type_symbol
   K          1.0     0.908335      0.471103      0.218834     Biso  1.000000 K
   K          1.0     0.091675      0.971102      0.281172     Biso  1.000000 K
   K          1.0     0.091666      0.528886      0.781166     Biso  1.000000 K
   K          1.0     0.908326      0.028887      0.718828     Biso  1.000000 K
   H          1.0     0.795610      0.371336      0.669127     Biso  1.000000 H
   H          1.0     0.204378      0.871342      0.830841     Biso  1.000000 H
   H          1.0     0.204391      0.628653      0.330872     Biso  1.000000 H
   H          1.0     0.795623      0.128648      0.169159     Biso  1.000000 H
   H          1.0     0.776965      0.496795      0.721453     Biso  1.000000 H
   H          1.0     0.223030      0.996802      0.778547     Biso  1.000000 H
   H          1.0     0.223036      0.503194      0.278547     Biso  1.000000 H
   H          1.0     0.776971      0.003187      0.221453     Biso  1.000000 H
   H          1.0     0.646517      0.993363      0.905228     Biso  1.000000 H
   H          1.0     0.353485      0.493357      0.594787     Biso  1.000000 H
   H          1.0     0.353484      0.006626      0.094773     Biso  1.000000 H
   H          1.0     0.646516      0.506632      0.405213     Biso  1.000000 H
   O          1.0     0.744725      0.584198      0.895168     Biso  1.000000 O
   O          1.0     0.255285      0.084198      0.604836     Biso  1.000000 O
   O          1.0     0.255277      0.415792      0.104833     Biso  1.000000 O
   O          1.0     0.744717      0.915791      0.395165     Biso  1.000000 O
   O          1.0     0.799771      0.442995      0.597256     Biso  1.000000 O
   O          1.0     0.200221      0.942997      0.902734     Biso  1.000000 O
   O          1.0     0.200230      0.556995      0.402745     Biso  1.000000 O
   O          1.0     0.799780      0.056993      0.097267     Biso  1.000000 O
   O          1.0     0.328375      0.747076      0.521951     Biso  1.000000 O
   O          1.0     0.671635      0.247077      0.978058     Biso  1.000000 O
   O          1.0     0.671626      0.252913      0.478049     Biso  1.000000 O
   O          1.0     0.328366      0.752912      0.021942     Biso  1.000000 O
   N          1.0     0.823093      0.676554      0.931959     Biso  1.000000 N
   N          1.0     0.176916      0.176558      0.568045     Biso  1.000000 N
   N          1.0     0.176908      0.323434      0.068042     Biso  1.000000 N
   N          1.0     0.823085      0.823433      0.431956     Biso  1.000000 N
   N          1.0     0.989333      0.689708      0.053789     Biso  1.000000 N
   N          1.0     0.010676      0.189709      0.446213     Biso  1.000000 N
   N          1.0     0.010668      0.310281      0.946212     Biso  1.000000 N
   N          1.0     0.989325      0.810280      0.553787     Biso  1.000000 N
   N          1.0     0.013250      0.794133      0.071872     Biso  1.000000 N
   N          1.0     0.986760      0.294134      0.428136     Biso  1.000000 N
   N          1.0     0.986752      0.205856      0.928129     Biso  1.000000 N
   N          1.0     0.013241      0.705855      0.571864     Biso  1.000000 N
   N          1.0     0.867586      0.849112      0.964818     Biso  1.000000 N
   N          1.0     0.132425      0.349112      0.535195     Biso  1.000000 N
   N          1.0     0.132416      0.150878      0.035182     Biso  1.000000 N
   N          1.0     0.867577      0.650877      0.464806     Biso  1.000000 N
   N          1.0     0.479678      0.701409      0.648769     Biso  1.000000 N
   N          1.0     0.520333      0.201409      0.851239     Biso  1.000000 N
   N          1.0     0.520323      0.298580      0.351230     Biso  1.000000 N
   N          1.0     0.479667      0.798581      0.148761     Biso  1.000000 N
   N          1.0     0.335475      0.859453      0.533180     Biso  1.000000 N
   N          1.0     0.664533      0.359454      0.966840     Biso  1.000000 N
   N          1.0     0.664526      0.140536      0.466821     Biso  1.000000 N
   N          1.0     0.335468      0.640535      0.033161     Biso  1.000000 N
   N          1.0     0.545006      0.980473      0.757266     Biso  1.000000 N
   N          1.0     0.455001      0.480471      0.742746     Biso  1.000000 N
   N          1.0     0.454996      0.019517      0.242735     Biso  1.000000 N
   N          1.0     0.545000      0.519518      0.257256     Biso  1.000000 N
   H          1.0     0.465498      0.046460      0.716274     Biso  1.000000 H
   H          1.0     0.534507      0.546460      0.783723     Biso  1.000000 H
   H          1.0     0.534503      0.953529      0.283727     Biso  1.000000 H
   H          1.0     0.465494      0.453529      0.216277     Biso  1.000000 H
   C          1.0     0.749702      0.773902      0.877017     Biso  1.000000 C
   C          1.0     0.250302      0.273902      0.622994     Biso  1.000000 C
   C          1.0     0.250296      0.226087      0.122982     Biso  1.000000 C
   C          1.0     0.749695      0.726087      0.377004     Biso  1.000000 C
   C          1.0     0.576678      0.784312      0.743588     Biso  1.000000 C
   C          1.0     0.423332      0.284312      0.756439     Biso  1.000000 C
   C          1.0     0.423325      0.215678      0.256414     Biso  1.000000 C
   C          1.0     0.576671      0.715677      0.243563     Biso  1.000000 C
   C          1.0     0.487828      0.883425      0.679882     Biso  1.000000 C
   C          1.0     0.512177      0.383426      0.820141     Biso  1.000000 C
   C          1.0     0.512172      0.116564      0.320117     Biso  1.000000 C
   C          1.0     0.487822      0.616564      0.179858     Biso  1.000000 C
