#======================================================================

# CRYSTAL DATA

#----------------------------------------------------------------------

data_VESTA_phase_1


_chemical_name_common                  '# Quantum Espresso PWSCF output snapsh'
_cell_length_a                         8.50574
_cell_length_b                         12.89729
_cell_length_c                         6.29380
_cell_angle_alpha                      89.99996
_cell_angle_beta                       103.43725
_cell_angle_gamma                      90.00005
_space_group_name_H-M_alt              'P 1'
_space_group_IT_number                 1

loop_
_space_group_symop_operation_xyz
   'x, y, z'

loop_
   _atom_site_label
   _atom_site_occupancy
   _atom_site_fract_x
   _atom_site_fract_y
   _atom_site_fract_z
   _atom_site_adp_type
   _atom_site_B_iso_or_equiv
   _atom_site_type_symbol
   K          1.0     0.890074      0.462666      0.225292     Biso  1.000000 K
   K          1.0     0.109926      0.962666      0.274707     Biso  1.000000 K
   K          1.0     0.109926      0.537331      0.774707     Biso  1.000000 K
   K          1.0     0.890074      0.037330      0.725292     Biso  1.000000 K
   H          1.0     0.805568      0.382520      0.660676     Biso  1.000000 H
   H          1.0     0.194431      0.882519      0.839324     Biso  1.000000 H
   H          1.0     0.194431      0.617478      0.339324     Biso  1.000000 H
   H          1.0     0.805568      0.117477      0.160676     Biso  1.000000 H
   H          1.0     0.783960      0.500316      0.711691     Biso  1.000000 H
   H          1.0     0.216041      0.000316      0.788307     Biso  1.000000 H
   H          1.0     0.216041      0.499680      0.288307     Biso  1.000000 H
   H          1.0     0.783959      0.999681      0.211693     Biso  1.000000 H
   H          1.0     0.639139      0.984694      0.890329     Biso  1.000000 H
   H          1.0     0.360862      0.484694      0.609671     Biso  1.000000 H
   H          1.0     0.360862      0.015302      0.109670     Biso  1.000000 H
   H          1.0     0.639138      0.515302      0.390328     Biso  1.000000 H
   O          1.0     0.747739      0.579915      0.891801     Biso  1.000000 O
   O          1.0     0.252262      0.079916      0.608197     Biso  1.000000 O
   O          1.0     0.252261      0.420080      0.108198     Biso  1.000000 O
   O          1.0     0.747739      0.920081      0.391802     Biso  1.000000 O
   O          1.0     0.808910      0.451770      0.600748     Biso  1.000000 O
   O          1.0     0.191090      0.951770      0.899251     Biso  1.000000 O
   O          1.0     0.191091      0.548226      0.399251     Biso  1.000000 O
   O          1.0     0.808910      0.048226      0.100748     Biso  1.000000 O
   O          1.0     0.341222      0.747627      0.554929     Biso  1.000000 O
   O          1.0     0.658779      0.247627      0.945070     Biso  1.000000 O
   O          1.0     0.658779      0.252369      0.445070     Biso  1.000000 O
   O          1.0     0.341222      0.752369      0.054929     Biso  1.000000 O
   N          1.0     0.812319      0.671828      0.920540     Biso  1.000000 N
   N          1.0     0.187682      0.171827      0.579459     Biso  1.000000 N
   N          1.0     0.187682      0.328169      0.079460     Biso  1.000000 N
   N          1.0     0.812319      0.828169      0.420541     Biso  1.000000 N
   N          1.0     0.967844      0.687452      0.027726     Biso  1.000000 N
   N          1.0     0.032157      0.187452      0.472273     Biso  1.000000 N
   N          1.0     0.032157      0.312544      0.972274     Biso  1.000000 N
   N          1.0     0.967844      0.812544      0.527726     Biso  1.000000 N
   N          1.0     0.988845      0.788602      0.037394     Biso  1.000000 N
   N          1.0     0.011155      0.288602      0.462606     Biso  1.000000 N
   N          1.0     0.011155      0.211395      0.962606     Biso  1.000000 N
   N          1.0     0.988845      0.711395      0.537393     Biso  1.000000 N
   N          1.0     0.852187      0.838983      0.940278     Biso  1.000000 N
   N          1.0     0.147813      0.338983      0.559723     Biso  1.000000 N
   N          1.0     0.147813      0.161013      0.059723     Biso  1.000000 N
   N          1.0     0.852187      0.661013      0.440277     Biso  1.000000 N
   N          1.0     0.483324      0.703030      0.662436     Biso  1.000000 N
   N          1.0     0.516678      0.203030      0.837563     Biso  1.000000 N
   N          1.0     0.516677      0.296966      0.337562     Biso  1.000000 N
   N          1.0     0.483323      0.796966      0.162437     Biso  1.000000 N
   N          1.0     0.347777      0.855840      0.574801     Biso  1.000000 N
   N          1.0     0.652224      0.355839      0.925199     Biso  1.000000 N
   N          1.0     0.652224      0.144157      0.425198     Biso  1.000000 N
   N          1.0     0.347776      0.644157      0.074801     Biso  1.000000 N
   N          1.0     0.548689      0.973322      0.753152     Biso  1.000000 N
   N          1.0     0.451310      0.473322      0.746847     Biso  1.000000 N
   N          1.0     0.451310      0.026674      0.246847     Biso  1.000000 N
   N          1.0     0.548690      0.526674      0.253153     Biso  1.000000 N
   H          1.0     0.468012      0.033146      0.714811     Biso  1.000000 H
   H          1.0     0.531988      0.533147      0.785189     Biso  1.000000 H
   H          1.0     0.531987      0.966851      0.285189     Biso  1.000000 H
   H          1.0     0.468013      0.466851      0.214810     Biso  1.000000 H
   C          1.0     0.741714      0.765522      0.866252     Biso  1.000000 C
   C          1.0     0.258288      0.265522      0.633748     Biso  1.000000 C
   C          1.0     0.258287      0.234474      0.133747     Biso  1.000000 C
   C          1.0     0.741714      0.734474      0.366251     Biso  1.000000 C
   C          1.0     0.578379      0.780420      0.748030     Biso  1.000000 C
   C          1.0     0.421621      0.280420      0.751969     Biso  1.000000 C
   C          1.0     0.421621      0.219576      0.251970     Biso  1.000000 C
   C          1.0     0.578379      0.719576      0.248030     Biso  1.000000 C
   C          1.0     0.493912      0.877269      0.696151     Biso  1.000000 C
   C          1.0     0.506089      0.377269      0.803849     Biso  1.000000 C
   C          1.0     0.506089      0.122727      0.303850     Biso  1.000000 C
   C          1.0     0.493912      0.622728      0.196149     Biso  1.000000 C
