#======================================================================

# CRYSTAL DATA

#----------------------------------------------------------------------

data_VESTA_phase_1


_chemical_name_common                  '# Quantum Espresso PWSCF output snapsh'
_cell_length_a                         8.35709
_cell_length_b                         12.81909
_cell_length_c                         6.17199
_cell_angle_alpha                      90.00003
_cell_angle_beta                       102.81956
_cell_angle_gamma                      89.99998
_space_group_name_H-M_alt              'P 1'
_space_group_IT_number                 1

loop_
_space_group_symop_operation_xyz
   'x, y, z'

loop_
   _atom_site_label
   _atom_site_occupancy
   _atom_site_fract_x
   _atom_site_fract_y
   _atom_site_fract_z
   _atom_site_adp_type
   _atom_site_B_iso_or_equiv
   _atom_site_type_symbol
   K          1.0     0.894126      0.464242      0.223583     Biso  1.000000 K
   K          1.0     0.105872      0.964241      0.276415     Biso  1.000000 K
   K          1.0     0.105872      0.535757      0.776415     Biso  1.000000 K
   K          1.0     0.894126      0.035756      0.723583     Biso  1.000000 K
   H          1.0     0.801213      0.380914      0.659707     Biso  1.000000 H
   H          1.0     0.198785      0.880913      0.840292     Biso  1.000000 H
   H          1.0     0.198785      0.619085      0.340292     Biso  1.000000 H
   H          1.0     0.801213      0.119084      0.159708     Biso  1.000000 H
   H          1.0     0.781818      0.499987      0.710301     Biso  1.000000 H
   H          1.0     0.218180     -0.000013      0.789698     Biso  1.000000 H
   H          1.0     0.218181      0.500011      0.289697     Biso  1.000000 H
   H          1.0     0.781817      1.000011      0.210302     Biso  1.000000 H
   H          1.0     0.638586      0.987003      0.890239     Biso  1.000000 H
   H          1.0     0.361412      0.487003      0.609759     Biso  1.000000 H
   H          1.0     0.361412      0.012994      0.109759     Biso  1.000000 H
   H          1.0     0.638586      0.512994      0.390239     Biso  1.000000 H
   O          1.0     0.748916      0.580350      0.892641     Biso  1.000000 O
   O          1.0     0.251083      0.080350      0.607357     Biso  1.000000 O
   O          1.0     0.251082      0.419648      0.107356     Biso  1.000000 O
   O          1.0     0.748917      0.919648      0.392641     Biso  1.000000 O
   O          1.0     0.805448      0.450237      0.597461     Biso  1.000000 O
   O          1.0     0.194551      0.950237      0.902537     Biso  1.000000 O
   O          1.0     0.194551      0.549760      0.402538     Biso  1.000000 O
   O          1.0     0.805448      0.049760      0.097461     Biso  1.000000 O
   O          1.0     0.339373      0.747338      0.551543     Biso  1.000000 O
   O          1.0     0.660627      0.247338      0.948455     Biso  1.000000 O
   O          1.0     0.660627      0.252659      0.448455     Biso  1.000000 O
   O          1.0     0.339373      0.752659      0.051543     Biso  1.000000 O
   N          1.0     0.814551      0.672583      0.923076     Biso  1.000000 N
   N          1.0     0.185448      0.172583      0.576924     Biso  1.000000 N
   N          1.0     0.185448      0.327415      0.076924     Biso  1.000000 N
   N          1.0     0.814551      0.827415      0.423075     Biso  1.000000 N
   N          1.0     0.971467      0.688038      0.033321     Biso  1.000000 N
   N          1.0     0.028533      0.188038      0.466678     Biso  1.000000 N
   N          1.0     0.028533      0.311960      0.966679     Biso  1.000000 N
   N          1.0     0.971467      0.811960      0.533320     Biso  1.000000 N
   N          1.0     0.992599      0.789599      0.044449     Biso  1.000000 N
   N          1.0     0.007400      0.289599      0.455550     Biso  1.000000 N
   N          1.0     0.007400      0.210399      0.955550     Biso  1.000000 N
   N          1.0     0.992599      0.710399      0.544449     Biso  1.000000 N
   N          1.0     0.854542      0.840436      0.945479     Biso  1.000000 N
   N          1.0     0.145456      0.340436      0.554521     Biso  1.000000 N
   N          1.0     0.145456      0.159561      0.054521     Biso  1.000000 N
   N          1.0     0.854542      0.659561      0.445479     Biso  1.000000 N
   N          1.0     0.482896      0.702870      0.662088     Biso  1.000000 N
   N          1.0     0.517103      0.202870      0.837910     Biso  1.000000 N
   N          1.0     0.517103      0.297128      0.337910     Biso  1.000000 N
   N          1.0     0.482896      0.797128      0.162088     Biso  1.000000 N
   N          1.0     0.345737      0.856130      0.569176     Biso  1.000000 N
   N          1.0     0.654261      0.356129      0.930823     Biso  1.000000 N
   N          1.0     0.654261      0.143869      0.430823     Biso  1.000000 N
   N          1.0     0.345737      0.643868      0.069177     Biso  1.000000 N
   N          1.0     0.547637      0.974666      0.751053     Biso  1.000000 N
   N          1.0     0.452361      0.474666      0.748946     Biso  1.000000 N
   N          1.0     0.452360      0.025332      0.248945     Biso  1.000000 N
   N          1.0     0.547636      0.525331      0.251053     Biso  1.000000 N
   H          1.0     0.466238      0.034881      0.710162     Biso  1.000000 H
   H          1.0     0.533760      0.534881      0.789838     Biso  1.000000 H
   H          1.0     0.533760      0.965118      0.289838     Biso  1.000000 H
   H          1.0     0.466238      0.465118      0.210161     Biso  1.000000 H
   C          1.0     0.743204      0.766688      0.868637     Biso  1.000000 C
   C          1.0     0.256796      0.266688      0.631361     Biso  1.000000 C
   C          1.0     0.256796      0.233309      0.131361     Biso  1.000000 C
   C          1.0     0.743204      0.733309      0.368637     Biso  1.000000 C
   C          1.0     0.578359      0.781101      0.747970     Biso  1.000000 C
   C          1.0     0.421639      0.281101      0.752030     Biso  1.000000 C
   C          1.0     0.421639      0.218897      0.252030     Biso  1.000000 C
   C          1.0     0.578359      0.718897      0.247969     Biso  1.000000 C
   C          1.0     0.492975      0.878176      0.693391     Biso  1.000000 C
   C          1.0     0.507025      0.378177      0.806608     Biso  1.000000 C
   C          1.0     0.507025      0.121821      0.306609     Biso  1.000000 C
   C          1.0     0.492974      0.621822      0.193390     Biso  1.000000 C
