#======================================================================

# CRYSTAL DATA

#----------------------------------------------------------------------

data_VESTA_phase_1


_chemical_name_common                  '# Quantum Espresso PWSCF output snapsh'
_cell_length_a                         8.21015
_cell_length_b                         12.71311
_cell_length_c                         6.02816
_cell_angle_alpha                      90
_cell_angle_beta                       102.31753
_cell_angle_gamma                      90
_space_group_name_H-M_alt              'P 1'
_space_group_IT_number                 1

loop_
_space_group_symop_operation_xyz
   'x, y, z'

loop_
   _atom_site_label
   _atom_site_occupancy
   _atom_site_fract_x
   _atom_site_fract_y
   _atom_site_fract_z
   _atom_site_adp_type
   _atom_site_B_iso_or_equiv
   _atom_site_type_symbol
   K          1.0     0.898174      0.465889      0.221990     Biso  1.000000 K
   K          1.0     0.101827      0.965889      0.278008     Biso  1.000000 K
   K          1.0     0.101828      0.534111      0.778009     Biso  1.000000 K
   K          1.0     0.898177      0.034109      0.721991     Biso  1.000000 K
   H          1.0     0.797436      0.378775      0.658857     Biso  1.000000 H
   H          1.0     0.202569      0.878776      0.841144     Biso  1.000000 H
   H          1.0     0.202567      0.621226      0.341142     Biso  1.000000 H
   H          1.0     0.797433      0.121224      0.158858     Biso  1.000000 H
   H          1.0     0.779917      0.499200      0.710692     Biso  1.000000 H
   H          1.0     0.220090      0.999200      0.789308     Biso  1.000000 H
   H          1.0     0.220088      0.500802      0.289306     Biso  1.000000 H
   H          1.0     0.779913      0.000800      0.210694     Biso  1.000000 H
   H          1.0     0.639110      0.989287      0.891607     Biso  1.000000 H
   H          1.0     0.360896      0.489285      0.608393     Biso  1.000000 H
   H          1.0     0.360894      0.010713      0.108392     Biso  1.000000 H
   H          1.0     0.639107      0.510714      0.391607     Biso  1.000000 H
   O          1.0     0.749132      0.580864      0.893483     Biso  1.000000 O
   O          1.0     0.250875      0.080862      0.606517     Biso  1.000000 O
   O          1.0     0.250872      0.419136      0.106516     Biso  1.000000 O
   O          1.0     0.749130      0.919138      0.393482     Biso  1.000000 O
   O          1.0     0.802911      0.448554      0.595329     Biso  1.000000 O
   O          1.0     0.197097      0.948556      0.904672     Biso  1.000000 O
   O          1.0     0.197094      0.551445      0.404672     Biso  1.000000 O
   O          1.0     0.802908      0.051444      0.095327     Biso  1.000000 O
   O          1.0     0.337143      0.747224      0.546947     Biso  1.000000 O
   O          1.0     0.662864      0.247224      0.953054     Biso  1.000000 O
   O          1.0     0.662861      0.252775      0.453053     Biso  1.000000 O
   O          1.0     0.337141      0.752775      0.046946     Biso  1.000000 O
   N          1.0     0.816648      0.673348      0.925335     Biso  1.000000 N
   N          1.0     0.183359      0.173347      0.574667     Biso  1.000000 N
   N          1.0     0.183357      0.326653      0.074666     Biso  1.000000 N
   N          1.0     0.816645      0.826654      0.425335     Biso  1.000000 N
   N          1.0     0.975331      0.688430      0.038298     Biso  1.000000 N
   N          1.0     0.024672      0.188430      0.461701     Biso  1.000000 N
   N          1.0     0.024674      0.311570      0.961703     Biso  1.000000 N
   N          1.0     0.975334      0.811571      0.538299     Biso  1.000000 N
   N          1.0     0.996904      0.790557      0.050852     Biso  1.000000 N
   N          1.0     0.003098      0.290556      0.449147     Biso  1.000000 N
   N          1.0     0.003101      0.209442      0.949148     Biso  1.000000 N
   N          1.0     0.996907      0.709444      0.550854     Biso  1.000000 N
   N          1.0     0.857278      0.842130      0.950230     Biso  1.000000 N
   N          1.0     0.142728      0.342128      0.549773     Biso  1.000000 N
   N          1.0     0.142725      0.157869      0.049772     Biso  1.000000 N
   N          1.0     0.857276      0.657871      0.450229     Biso  1.000000 N
   N          1.0     0.482256      0.702704      0.660741     Biso  1.000000 N
   N          1.0     0.517750      0.202702      0.839260     Biso  1.000000 N
   N          1.0     0.517748      0.297297      0.339259     Biso  1.000000 N
   N          1.0     0.482253      0.797298      0.160740     Biso  1.000000 N
   N          1.0     0.343465      0.856774      0.562673     Biso  1.000000 N
   N          1.0     0.656541      0.356772      0.937329     Biso  1.000000 N
   N          1.0     0.656538      0.143228      0.437327     Biso  1.000000 N
   N          1.0     0.343462      0.643227      0.062673     Biso  1.000000 N
   N          1.0     0.546713      0.976240      0.750472     Biso  1.000000 N
   N          1.0     0.453293      0.476240      0.749530     Biso  1.000000 N
   N          1.0     0.453290      0.023760      0.249527     Biso  1.000000 N
   N          1.0     0.546709      0.523760      0.250471     Biso  1.000000 N
   H          1.0     0.465032      0.037234      0.707642     Biso  1.000000 H
   H          1.0     0.534974      0.537236      0.792361     Biso  1.000000 H
   H          1.0     0.534972      0.962766      0.292361     Biso  1.000000 H
   H          1.0     0.465029      0.462765      0.207639     Biso  1.000000 H
   C          1.0     0.744705      0.768074      0.870836     Biso  1.000000 C
   C          1.0     0.255304      0.268073      0.629165     Biso  1.000000 C
   C          1.0     0.255301      0.231925      0.129164     Biso  1.000000 C
   C          1.0     0.744702      0.731926      0.370835     Biso  1.000000 C
   C          1.0     0.578165      0.781905      0.747609     Biso  1.000000 C
   C          1.0     0.421840      0.281903      0.752394     Biso  1.000000 C
   C          1.0     0.421837      0.218095      0.252393     Biso  1.000000 C
   C          1.0     0.578163      0.718096      0.247607     Biso  1.000000 C
   C          1.0     0.491924      0.879372      0.690623     Biso  1.000000 C
   C          1.0     0.508083      0.379371      0.809377     Biso  1.000000 C
   C          1.0     0.508080      0.120626      0.309378     Biso  1.000000 C
   C          1.0     0.491922      0.620629      0.190622     Biso  1.000000 C
