#======================================================================

# CRYSTAL DATA

#----------------------------------------------------------------------

data_VESTA_phase_1


_chemical_name_common                  '# Quantum Espresso PWSCF output snapsh'
_cell_length_a                         9.11996
_cell_length_b                         13.08486
_cell_length_c                         6.72842
_cell_angle_alpha                      90
_cell_angle_beta                       106.77378
_cell_angle_gamma                      90
_space_group_name_H-M_alt              'P 1'
_space_group_IT_number                 1

loop_
_space_group_symop_operation_xyz
   'x, y, z'

loop_
   _atom_site_label
   _atom_site_occupancy
   _atom_site_fract_x
   _atom_site_fract_y
   _atom_site_fract_z
   _atom_site_adp_type
   _atom_site_B_iso_or_equiv
   _atom_site_type_symbol
   K          1.0     0.875681      0.457502      0.230379     Biso  1.000000 K
   K          1.0     0.124316      0.957500      0.269620     Biso  1.000000 K
   K          1.0     0.124313      0.542495      0.769619     Biso  1.000000 K
   K          1.0     0.875678      0.042497      0.730378     Biso  1.000000 K
   H          1.0     0.825453      0.388155      0.665402     Biso  1.000000 H
   H          1.0     0.174538      0.888153      0.834595     Biso  1.000000 H
   H          1.0     0.174541      0.611841      0.334596     Biso  1.000000 H
   H          1.0     0.825456      0.111843      0.165403     Biso  1.000000 H
   H          1.0     0.793669      0.501265      0.718648     Biso  1.000000 H
   H          1.0     0.206322      1.001263      0.781348     Biso  1.000000 H
   H          1.0     0.206325      0.498731      0.281350     Biso  1.000000 H
   H          1.0     0.793672     -0.001267      0.218649     Biso  1.000000 H
   H          1.0     0.645098      0.977720      0.892466     Biso  1.000000 H
   H          1.0     0.354893      0.477722      0.607531     Biso  1.000000 H
   H          1.0     0.354896      0.022276      0.107532     Biso  1.000000 H
   H          1.0     0.645101      0.522274      0.392467     Biso  1.000000 H
   O          1.0     0.745257      0.579147      0.885485     Biso  1.000000 O
   O          1.0     0.254734      0.079149      0.614512     Biso  1.000000 O
   O          1.0     0.254737      0.420849      0.114513     Biso  1.000000 O
   O          1.0     0.745260      0.920847      0.385486     Biso  1.000000 O
   O          1.0     0.825005      0.458054      0.615434     Biso  1.000000 O
   O          1.0     0.174986      0.958052      0.884563     Biso  1.000000 O
   O          1.0     0.174989      0.541942      0.384564     Biso  1.000000 O
   O          1.0     0.825008      0.041944      0.115435     Biso  1.000000 O
   O          1.0     0.346517      0.749112      0.567419     Biso  1.000000 O
   O          1.0     0.653475      0.249114      0.932577     Biso  1.000000 O
   O          1.0     0.653478      0.250884      0.432579     Biso  1.000000 O
   O          1.0     0.346519      0.750882      0.067420     Biso  1.000000 O
   N          1.0     0.806540      0.670147      0.907054     Biso  1.000000 N
   N          1.0     0.193452      0.170149      0.592942     Biso  1.000000 N
   N          1.0     0.193455      0.329849      0.092944     Biso  1.000000 N
   N          1.0     0.806543      0.829847      0.407055     Biso  1.000000 N
   N          1.0     0.957968      0.686465     -0.000023     Biso  1.000000 N
   N          1.0     0.042029      0.186467      0.500022     Biso  1.000000 N
   N          1.0     0.042026      0.313531      1.000021     Biso  1.000000 N
   N          1.0     0.957965      0.813529      0.499976     Biso  1.000000 N
   N          1.0     0.978001      0.786670      0.003105     Biso  1.000000 N
   N          1.0     0.021996      0.286672      0.496894     Biso  1.000000 N
   N          1.0     0.021994      0.213326      0.996892     Biso  1.000000 N
   N          1.0     0.977998      0.713324      0.503104     Biso  1.000000 N
   N          1.0     0.845107      0.835682      0.914883     Biso  1.000000 N
   N          1.0     0.154884      0.335683      0.585114     Biso  1.000000 N
   N          1.0     0.154887      0.164315      0.085115     Biso  1.000000 N
   N          1.0     0.845110      0.664313      0.414884     Biso  1.000000 N
   N          1.0     0.484541      0.703822      0.662410     Biso  1.000000 N
   N          1.0     0.515451      0.203823      0.837587     Biso  1.000000 N
   N          1.0     0.515454      0.296175      0.337588     Biso  1.000000 N
   N          1.0     0.484543      0.796173      0.162411     Biso  1.000000 N
   N          1.0     0.354417      0.855754      0.595236     Biso  1.000000 N
   N          1.0     0.645574      0.355756      0.904761     Biso  1.000000 N
   N          1.0     0.645577      0.144242      0.404762     Biso  1.000000 N
   N          1.0     0.354420      0.644241      0.095237     Biso  1.000000 N
   N          1.0     0.553278      0.969818      0.763253     Biso  1.000000 N
   N          1.0     0.446713      0.469820      0.736744     Biso  1.000000 N
   N          1.0     0.446716      0.030178      0.236745     Biso  1.000000 N
   N          1.0     0.553281      0.530176      0.263254     Biso  1.000000 N
   H          1.0     0.476150      0.028776      0.736159     Biso  1.000000 H
   H          1.0     0.523842      0.528774      0.763838     Biso  1.000000 H
   H          1.0     0.523844      0.971220      0.263839     Biso  1.000000 H
   H          1.0     0.476153      0.471222      0.236160     Biso  1.000000 H
   C          1.0     0.737657      0.762767      0.854043     Biso  1.000000 C
   C          1.0     0.262334      0.262769      0.645953     Biso  1.000000 C
   C          1.0     0.262337      0.237229      0.145954     Biso  1.000000 C
   C          1.0     0.737660      0.737227      0.354044     Biso  1.000000 C
   C          1.0     0.578710      0.778809      0.747022     Biso  1.000000 C
   C          1.0     0.421281      0.278811      0.752975     Biso  1.000000 C
   C          1.0     0.421284      0.221187      0.252976     Biso  1.000000 C
   C          1.0     0.578713      0.721186      0.247023     Biso  1.000000 C
   C          1.0     0.497480      0.875141      0.706426     Biso  1.000000 C
   C          1.0     0.502511      0.375143      0.793570     Biso  1.000000 C
   C          1.0     0.502514      0.124855      0.293572     Biso  1.000000 C
   C          1.0     0.497483      0.624853      0.206427     Biso  1.000000 C
