#======================================================================

# CRYSTAL DATA

#----------------------------------------------------------------------

data_VESTA_phase_1


_chemical_name_common                  '# Quantum Espresso PWSCF output snapsh'
_cell_length_a                         4.10379
_cell_length_b                         12.08112
_cell_length_c                         10.79001
_cell_angle_alpha                      90.00003
_cell_angle_beta                       88.24080
_cell_angle_gamma                      89.99995
_space_group_name_H-M_alt              'P 1'
_space_group_IT_number                 1

loop_
_space_group_symop_operation_xyz
   'x, y, z'

loop_
   _atom_site_label
   _atom_site_occupancy
   _atom_site_fract_x
   _atom_site_fract_y
   _atom_site_fract_z
   _atom_site_adp_type
   _atom_site_B_iso_or_equiv
   _atom_site_type_symbol
   K          1.0     0.281575      0.054209      0.395202     Biso  1.000000 K
   K          1.0     0.218423      0.554209      0.104802     Biso  1.000000 K
   K          1.0     0.718422      0.945794      0.604802     Biso  1.000000 K
   K          1.0     0.781576      0.445794      0.895202     Biso  1.000000 K
   O          1.0     0.797550      0.947730      0.341288     Biso  1.000000 O
   O          1.0     0.702449      0.447730      0.158716     Biso  1.000000 O
   O          1.0     0.202449      0.052274      0.658716     Biso  1.000000 O
   O          1.0     0.297549      0.552273      0.841287     Biso  1.000000 O
   O          1.0     0.476826      0.744210      0.547696     Biso  1.000000 O
   O          1.0     0.023171      0.244210      0.952307     Biso  1.000000 O
   O          1.0     0.523170      0.255794      0.452307     Biso  1.000000 O
   O          1.0     0.976827      0.755794      0.047696     Biso  1.000000 O
   N          1.0     0.724719      0.850913      0.299897     Biso  1.000000 N
   N          1.0     0.775278      0.350912      0.200106     Biso  1.000000 N
   N          1.0     0.275276      0.149092      0.700106     Biso  1.000000 N
   N          1.0     0.224721      0.649090      0.799897     Biso  1.000000 N
   N          1.0     0.483547      0.832286      0.220515     Biso  1.000000 N
   N          1.0     0.016451      0.332286      0.279488     Biso  1.000000 N
   N          1.0     0.516452      0.167717      0.779488     Biso  1.000000 N
   N          1.0     0.983546      0.667718      0.720515     Biso  1.000000 N
   N          1.0     0.477688      0.724799      0.203207     Biso  1.000000 N
   N          1.0     0.022309      0.224799      0.296797     Biso  1.000000 N
   N          1.0     0.522309      0.275204      0.796796     Biso  1.000000 N
   N          1.0     0.977688      0.775204      0.703207     Biso  1.000000 N
   N          1.0     0.704771      0.673283      0.267415     Biso  1.000000 N
   N          1.0     0.795226      0.173283      0.232588     Biso  1.000000 N
   N          1.0     0.295227      0.326721      0.732588     Biso  1.000000 N
   N          1.0     0.204772      0.826721      0.767415     Biso  1.000000 N
   N          1.0     0.256428      0.805147      0.481039     Biso  1.000000 N
   N          1.0     0.243570      0.305147      0.018964     Biso  1.000000 N
   N          1.0     0.743569      0.194857      0.518963     Biso  1.000000 N
   N          1.0     0.756429      0.694857      0.981040     Biso  1.000000 N
   N          1.0     0.451575      0.631193      0.522830     Biso  1.000000 N
   N          1.0     0.048423      0.131193      0.977173     Biso  1.000000 N
   N          1.0     0.548423      0.368810      0.477173     Biso  1.000000 N
   N          1.0     0.951573      0.868810      0.022830     Biso  1.000000 N
   N          1.0     0.135919      0.532349      0.379490     Biso  1.000000 N
   N          1.0     0.364078      0.032349      0.120514     Biso  1.000000 N
   N          1.0     0.864078      0.467655      0.620513     Biso  1.000000 N
   N          1.0     0.635919      0.967655      0.879490     Biso  1.000000 N
   H          1.0     0.919730      0.533926      0.335418     Biso  1.000000 H
   H          1.0     0.580268      0.033926      0.164585     Biso  1.000000 H
   H          1.0     0.080268      0.466077      0.664584     Biso  1.000000 H
   H          1.0     0.419729      0.966077      0.835420     Biso  1.000000 H
   H          1.0     0.244781      0.458931      0.401387     Biso  1.000000 H
   H          1.0     0.255215      0.958931      0.098617     Biso  1.000000 H
   H          1.0     0.755215      0.541073      0.598617     Biso  1.000000 H
   H          1.0     0.744781      0.041073      0.901386     Biso  1.000000 H
   C          1.0     0.099453      0.731997      0.416545     Biso  1.000000 C
   C          1.0     0.400544      0.231997      0.083458     Biso  1.000000 C
   C          1.0     0.900545      0.268006      0.583458     Biso  1.000000 C
   C          1.0     0.599453      0.768006      0.916546     Biso  1.000000 C
   C          1.0     0.857751      0.752512      0.328979     Biso  1.000000 C
   C          1.0     0.642247      0.252511      0.171026     Biso  1.000000 C
   C          1.0     0.142247      0.247492      0.671026     Biso  1.000000 C
   C          1.0     0.357751      0.747493      0.828979     Biso  1.000000 C
   C          1.0     0.222245      0.623096      0.439915     Biso  1.000000 C
   C          1.0     0.277752      0.123096      0.060088     Biso  1.000000 C
   C          1.0     0.777752      0.376908      0.560088     Biso  1.000000 C
   C          1.0     0.722247      0.876908      0.939916     Biso  1.000000 C
