#======================================================================

# CRYSTAL DATA

#----------------------------------------------------------------------

data_VESTA_phase_1


_chemical_name_common                  '# Quantum Espresso PWSCF output snapsh'
_cell_length_a                         4.08150
_cell_length_b                         12.04761
_cell_length_c                         10.74367
_cell_angle_alpha                      90.00005
_cell_angle_beta                       88.00201
_cell_angle_gamma                      89.99995
_space_group_name_H-M_alt              'P 1'
_space_group_IT_number                 1

loop_
_space_group_symop_operation_xyz
   'x, y, z'

loop_
   _atom_site_label
   _atom_site_occupancy
   _atom_site_fract_x
   _atom_site_fract_y
   _atom_site_fract_z
   _atom_site_adp_type
   _atom_site_B_iso_or_equiv
   _atom_site_type_symbol
   K          1.0     0.281669      0.053772      0.396308     Biso  1.000000 K
   K          1.0     0.218329      0.553772      0.103697     Biso  1.000000 K
   K          1.0     0.718328      0.946233      0.603697     Biso  1.000000 K
   K          1.0     0.781670      0.446233      0.896308     Biso  1.000000 K
   O          1.0     0.798793      0.948113      0.338857     Biso  1.000000 O
   O          1.0     0.701206      0.448112      0.161147     Biso  1.000000 O
   O          1.0     0.201206      0.051893      0.661148     Biso  1.000000 O
   O          1.0     0.298792      0.551893      0.838857     Biso  1.000000 O
   O          1.0     0.478575      0.744365      0.547306     Biso  1.000000 O
   O          1.0     0.021422      0.244364      0.952698     Biso  1.000000 O
   O          1.0     0.521421      0.255641      0.452698     Biso  1.000000 O
   O          1.0     0.978576      0.755641      0.047306     Biso  1.000000 O
   N          1.0     0.724819      0.850873      0.298242     Biso  1.000000 N
   N          1.0     0.775178      0.350872      0.201762     Biso  1.000000 N
   N          1.0     0.275176      0.149133      0.701762     Biso  1.000000 N
   N          1.0     0.224821      0.649132      0.798242     Biso  1.000000 N
   N          1.0     0.482671      0.831793      0.218953     Biso  1.000000 N
   N          1.0     0.017327      0.331794      0.281051     Biso  1.000000 N
   N          1.0     0.517328      0.168211      0.781051     Biso  1.000000 N
   N          1.0     0.982670      0.668212      0.718953     Biso  1.000000 N
   N          1.0     0.476908      0.723962      0.202329     Biso  1.000000 N
   N          1.0     0.023089      0.223962      0.297676     Biso  1.000000 N
   N          1.0     0.523089      0.276043      0.797675     Biso  1.000000 N
   N          1.0     0.976908      0.776043      0.702329     Biso  1.000000 N
   N          1.0     0.704751      0.672691      0.266905     Biso  1.000000 N
   N          1.0     0.795247      0.172690      0.233099     Biso  1.000000 N
   N          1.0     0.295247      0.327315      0.733099     Biso  1.000000 N
   N          1.0     0.204751      0.827315      0.766905     Biso  1.000000 N
   N          1.0     0.257663      0.805513      0.480419     Biso  1.000000 N
   N          1.0     0.242336      0.305513      0.019585     Biso  1.000000 N
   N          1.0     0.742334      0.194493      0.519584     Biso  1.000000 N
   N          1.0     0.757663      0.694493      0.980420     Biso  1.000000 N
   N          1.0     0.452661      0.631044      0.522615     Biso  1.000000 N
   N          1.0     0.047336      0.131044      0.977389     Biso  1.000000 N
   N          1.0     0.547338      0.368961      0.477389     Biso  1.000000 N
   N          1.0     0.952659      0.868961      0.022615     Biso  1.000000 N
   N          1.0     0.135108      0.532119      0.379110     Biso  1.000000 N
   N          1.0     0.364889      0.032119      0.120894     Biso  1.000000 N
   N          1.0     0.864889      0.467887      0.620894     Biso  1.000000 N
   N          1.0     0.635109      0.967887      0.879111     Biso  1.000000 N
   H          1.0     0.918077      0.533977      0.334915     Biso  1.000000 H
   H          1.0     0.581920      0.033977      0.165090     Biso  1.000000 H
   H          1.0     0.081921      0.466028      0.665088     Biso  1.000000 H
   H          1.0     0.418077      0.966028      0.834916     Biso  1.000000 H
   H          1.0     0.244319      0.458467      0.400916     Biso  1.000000 H
   H          1.0     0.255677      0.958467      0.099088     Biso  1.000000 H
   H          1.0     0.755677      0.541539      0.599089     Biso  1.000000 H
   H          1.0     0.744319      0.041538      0.900916     Biso  1.000000 H
   C          1.0     0.099818      0.732144      0.416051     Biso  1.000000 C
   C          1.0     0.400180      0.232144      0.083954     Biso  1.000000 C
   C          1.0     0.900180      0.267861      0.583953     Biso  1.000000 C
   C          1.0     0.599817      0.767861      0.916051     Biso  1.000000 C
   C          1.0     0.858145      0.752424      0.328039     Biso  1.000000 C
   C          1.0     0.641852      0.252424      0.171967     Biso  1.000000 C
   C          1.0     0.141853      0.247581      0.671967     Biso  1.000000 C
   C          1.0     0.358146      0.747582      0.828039     Biso  1.000000 C
   C          1.0     0.222373      0.622949      0.439620     Biso  1.000000 C
   C          1.0     0.277625      0.122949      0.060384     Biso  1.000000 C
   C          1.0     0.777624      0.377057      0.560383     Biso  1.000000 C
   C          1.0     0.722374      0.877057      0.939621     Biso  1.000000 C
