#======================================================================

# CRYSTAL DATA

#----------------------------------------------------------------------

data_VESTA_phase_1


_chemical_name_common                  '# Quantum Espresso PWSCF output snapsh'
_cell_length_a                         4.00189
_cell_length_b                         11.93268
_cell_length_c                         10.59127
_cell_angle_alpha                      89.99996
_cell_angle_beta                       87.16640
_cell_angle_gamma                      89.99998
_space_group_name_H-M_alt              'P 1'
_space_group_IT_number                 1

loop_
_space_group_symop_operation_xyz
   'x, y, z'

loop_
   _atom_site_label
   _atom_site_occupancy
   _atom_site_fract_x
   _atom_site_fract_y
   _atom_site_fract_z
   _atom_site_adp_type
   _atom_site_B_iso_or_equiv
   _atom_site_type_symbol
   K          1.0     0.282465      0.053023      0.399459     Biso  1.000000 K
   K          1.0     0.217532      0.553023      0.100537     Biso  1.000000 K
   K          1.0     0.717532      0.946987      0.600537     Biso  1.000000 K
   K          1.0     0.782465      0.446987      0.899459     Biso  1.000000 K
   O          1.0     0.803665      0.949555      0.331881     Biso  1.000000 O
   O          1.0     0.696331      0.449556      0.168115     Biso  1.000000 O
   O          1.0     0.196331      0.050454      0.668115     Biso  1.000000 O
   O          1.0     0.303666      0.550454      0.831881     Biso  1.000000 O
   O          1.0     0.482979      0.744243      0.546899     Biso  1.000000 O
   O          1.0     0.017018      0.244243      0.953096     Biso  1.000000 O
   O          1.0     0.517018      0.255766      0.453096     Biso  1.000000 O
   O          1.0     0.982979      0.755766      0.046899     Biso  1.000000 O
   N          1.0     0.724117      0.851079      0.293955     Biso  1.000000 N
   N          1.0     0.775880      0.351079      0.206041     Biso  1.000000 N
   N          1.0     0.275880      0.148930      0.706041     Biso  1.000000 N
   N          1.0     0.224118      0.648930      0.793955     Biso  1.000000 N
   N          1.0     0.478085      0.830866      0.215082     Biso  1.000000 N
   N          1.0     0.021913      0.330867      0.284914     Biso  1.000000 N
   N          1.0     0.521912      0.169143      0.784914     Biso  1.000000 N
   N          1.0     0.978085      0.669143      0.715082     Biso  1.000000 N
   N          1.0     0.472030      0.721951      0.200393     Biso  1.000000 N
   N          1.0     0.027968      0.221951      0.299603     Biso  1.000000 N
   N          1.0     0.527968      0.278059      0.799603     Biso  1.000000 N
   N          1.0     0.972030      0.778059      0.700393     Biso  1.000000 N
   N          1.0     0.702547      0.671169      0.265900     Biso  1.000000 N
   N          1.0     0.797450      0.171169      0.234096     Biso  1.000000 N
   N          1.0     0.297451      0.328841      0.734096     Biso  1.000000 N
   N          1.0     0.202547      0.828840      0.765900     Biso  1.000000 N
   N          1.0     0.260599      0.806380      0.479371     Biso  1.000000 N
   N          1.0     0.239397      0.306380      0.020625     Biso  1.000000 N
   N          1.0     0.739397      0.193629      0.520625     Biso  1.000000 N
   N          1.0     0.760600      0.693630      0.979371     Biso  1.000000 N
   N          1.0     0.454509      0.629963      0.522448     Biso  1.000000 N
   N          1.0     0.045489      0.129963      0.977548     Biso  1.000000 N
   N          1.0     0.545489      0.370047      0.477548     Biso  1.000000 N
   N          1.0     0.954509      0.870047      0.022448     Biso  1.000000 N
   N          1.0     0.131100      0.531343      0.377778     Biso  1.000000 N
   N          1.0     0.368899      0.031342      0.122218     Biso  1.000000 N
   N          1.0     0.868898      0.468669      0.622218     Biso  1.000000 N
   N          1.0     0.631099      0.968666      0.877778     Biso  1.000000 N
   H          1.0     0.910938      0.534001      0.333212     Biso  1.000000 H
   H          1.0     0.589058      0.034001      0.166784     Biso  1.000000 H
   H          1.0     0.089060      0.466008      0.666784     Biso  1.000000 H
   H          1.0     0.410939      0.966008      0.833212     Biso  1.000000 H
   H          1.0     0.242795      0.456982      0.398721     Biso  1.000000 H
   H          1.0     0.257202      0.956982      0.101274     Biso  1.000000 H
   H          1.0     0.757203      0.543027      0.601274     Biso  1.000000 H
   H          1.0     0.742795      0.043028      0.898722     Biso  1.000000 H
   C          1.0     0.099459      0.732495      0.415225     Biso  1.000000 C
   C          1.0     0.400540      0.232494      0.084771     Biso  1.000000 C
   C          1.0     0.900540      0.267516      0.584771     Biso  1.000000 C
   C          1.0     0.599458      0.767515      0.915225     Biso  1.000000 C
   C          1.0     0.858030      0.752314      0.325766     Biso  1.000000 C
   C          1.0     0.641966      0.252314      0.174229     Biso  1.000000 C
   C          1.0     0.141965      0.247695      0.674229     Biso  1.000000 C
   C          1.0     0.358031      0.747695      0.825766     Biso  1.000000 C
   C          1.0     0.221102      0.622221      0.439041     Biso  1.000000 C
   C          1.0     0.278892      0.122222      0.060954     Biso  1.000000 C
   C          1.0     0.778892      0.377787      0.560954     Biso  1.000000 C
   C          1.0     0.721103      0.877789      0.939041     Biso  1.000000 C
