#======================================================================

# CRYSTAL DATA

#----------------------------------------------------------------------

data_VESTA_phase_1


_chemical_name_common                  '# Quantum Espresso PWSCF output snapsh'
_cell_length_a                         3.95296
_cell_length_b                         11.85573
_cell_length_c                         10.49748
_cell_angle_alpha                      89.99986
_cell_angle_beta                       86.62388
_cell_angle_gamma                      89.99991
_space_group_name_H-M_alt              'P 1'
_space_group_IT_number                 1

loop_
_space_group_symop_operation_xyz
   'x, y, z'

loop_
   _atom_site_label
   _atom_site_occupancy
   _atom_site_fract_x
   _atom_site_fract_y
   _atom_site_fract_z
   _atom_site_adp_type
   _atom_site_B_iso_or_equiv
   _atom_site_type_symbol
   K          1.0     0.283525      0.052844      0.401088     Biso  1.000000 K
   K          1.0     0.216472      0.552844      0.098910     Biso  1.000000 K
   K          1.0     0.716472      0.947160      0.598910     Biso  1.000000 K
   K          1.0     0.783524      0.447159      0.901089     Biso  1.000000 K
   O          1.0     0.807509      0.950586      0.328134     Biso  1.000000 O
   O          1.0     0.692486      0.450587      0.171865     Biso  1.000000 O
   O          1.0     0.192485      0.049417      0.671865     Biso  1.000000 O
   O          1.0     0.307509      0.549417      0.828134     Biso  1.000000 O
   O          1.0     0.485921      0.743996      0.546985     Biso  1.000000 O
   O          1.0     0.014076      0.243996      0.953013     Biso  1.000000 O
   O          1.0     0.514076      0.256007      0.453013     Biso  1.000000 O
   O          1.0     0.985920      0.756007      0.046985     Biso  1.000000 O
   N          1.0     0.724008      0.851393      0.291905     Biso  1.000000 N
   N          1.0     0.775987      0.351392      0.208093     Biso  1.000000 N
   N          1.0     0.275987      0.148610      0.708093     Biso  1.000000 N
   N          1.0     0.224009      0.648610      0.791905     Biso  1.000000 N
   N          1.0     0.475545      0.830559      0.213316     Biso  1.000000 N
   N          1.0     0.024451      0.330561      0.286683     Biso  1.000000 N
   N          1.0     0.524450      0.169443      0.786683     Biso  1.000000 N
   N          1.0     0.975546      0.669445      0.713316     Biso  1.000000 N
   N          1.0     0.469285      0.720953      0.199693     Biso  1.000000 N
   N          1.0     0.030711      0.220952      0.300306     Biso  1.000000 N
   N          1.0     0.530712      0.279051      0.800306     Biso  1.000000 N
   N          1.0     0.969285      0.779051      0.699693     Biso  1.000000 N
   N          1.0     0.701461      0.670398      0.265673     Biso  1.000000 N
   N          1.0     0.798535      0.170398      0.234326     Biso  1.000000 N
   N          1.0     0.298537      0.329606      0.734326     Biso  1.000000 N
   N          1.0     0.201461      0.829605      0.765673     Biso  1.000000 N
   N          1.0     0.262751      0.806907      0.479164     Biso  1.000000 N
   N          1.0     0.237246      0.306906      0.020836     Biso  1.000000 N
   N          1.0     0.737244      0.193096      0.520835     Biso  1.000000 N
   N          1.0     0.762749      0.693097      0.979163     Biso  1.000000 N
   N          1.0     0.455600      0.629118      0.522551     Biso  1.000000 N
   N          1.0     0.044395      0.129118      0.977448     Biso  1.000000 N
   N          1.0     0.544396      0.370886      0.477448     Biso  1.000000 N
   N          1.0     0.955601      0.870886      0.022550     Biso  1.000000 N
   N          1.0     0.128689      0.530895      0.377016     Biso  1.000000 N
   N          1.0     0.371305      0.030893      0.122982     Biso  1.000000 N
   N          1.0     0.871307      0.469110      0.622983     Biso  1.000000 N
   N          1.0     0.628691      0.969108      0.877017     Biso  1.000000 N
   H          1.0     0.906350      0.533988      0.332388     Biso  1.000000 H
   H          1.0     0.593647      0.033988      0.167611     Biso  1.000000 H
   H          1.0     0.093646      0.466015      0.667611     Biso  1.000000 H
   H          1.0     0.406349      0.966015      0.832388     Biso  1.000000 H
   H          1.0     0.242526      0.456122      0.397242     Biso  1.000000 H
   H          1.0     0.257470      0.956123      0.102756     Biso  1.000000 H
   H          1.0     0.757470      0.543881      0.602755     Biso  1.000000 H
   H          1.0     0.742525      0.043882      0.897243     Biso  1.000000 H
   C          1.0     0.099295      0.732760      0.415152     Biso  1.000000 C
   C          1.0     0.400697      0.232760      0.084845     Biso  1.000000 C
   C          1.0     0.900702      0.267244      0.584847     Biso  1.000000 C
   C          1.0     0.599300      0.767242      0.915154     Biso  1.000000 C
   C          1.0     0.858303      0.752381      0.324799     Biso  1.000000 C
   C          1.0     0.641696      0.252381      0.175201     Biso  1.000000 C
   C          1.0     0.141691      0.247623      0.675199     Biso  1.000000 C
   C          1.0     0.358300      0.747623      0.824798     Biso  1.000000 C
   C          1.0     0.220250      0.621740      0.438915     Biso  1.000000 C
   C          1.0     0.279746      0.121740      0.061083     Biso  1.000000 C
   C          1.0     0.779744      0.378263      0.561082     Biso  1.000000 C
   C          1.0     0.720247      0.878264      0.938914     Biso  1.000000 C
