#======================================================================

# CRYSTAL DATA

#----------------------------------------------------------------------

data_VESTA_phase_1


_chemical_name_common                  '# Quantum Espresso PWSCF output snapsh'
_cell_length_a                         3.88531
_cell_length_b                         11.74185
_cell_length_c                         10.36438
_cell_angle_alpha                      90
_cell_angle_beta                       85.85802
_cell_angle_gamma                      90
_space_group_name_H-M_alt              'P 1'
_space_group_IT_number                 1

loop_
_space_group_symop_operation_xyz
   'x, y, z'

loop_
   _atom_site_label
   _atom_site_occupancy
   _atom_site_fract_x
   _atom_site_fract_y
   _atom_site_fract_z
   _atom_site_adp_type
   _atom_site_B_iso_or_equiv
   _atom_site_type_symbol
   K          1.0     0.285232      0.052727      0.403227     Biso  1.000000 K
   K          1.0     0.214709      0.552744      0.096856     Biso  1.000000 K
   K          1.0     0.714710      0.947248      0.596854     Biso  1.000000 K
   K          1.0     0.785233      0.447270      0.903225     Biso  1.000000 K
   O          1.0     0.813115      0.952012      0.323583     Biso  1.000000 O
   O          1.0     0.686849      0.452009      0.176539     Biso  1.000000 O
   O          1.0     0.186850      0.047989      0.676537     Biso  1.000000 O
   O          1.0     0.313117      0.547981      0.823579     Biso  1.000000 O
   O          1.0     0.490108      0.743553      0.547269     Biso  1.000000 O
   O          1.0     0.009887      0.243598      0.952724     Biso  1.000000 O
   O          1.0     0.509886      0.256400      0.452726     Biso  1.000000 O
   O          1.0     0.990108      0.756440      0.047271     Biso  1.000000 O
   N          1.0     0.723618      0.851923      0.289589     Biso  1.000000 N
   N          1.0     0.776384      0.351903      0.210461     Biso  1.000000 N
   N          1.0     0.276384      0.148095      0.710459     Biso  1.000000 N
   N          1.0     0.223618      0.648070      0.789587     Biso  1.000000 N
   N          1.0     0.471799      0.830305      0.211345     Biso  1.000000 N
   N          1.0     0.028211      0.330247      0.288690     Biso  1.000000 N
   N          1.0     0.528212      0.169750      0.788688     Biso  1.000000 N
   N          1.0     0.971799      0.669688      0.711343     Biso  1.000000 N
   N          1.0     0.465413      0.719711      0.198998     Biso  1.000000 N
   N          1.0     0.034568      0.219649      0.300993     Biso  1.000000 N
   N          1.0     0.534569      0.280348      0.800990     Biso  1.000000 N
   N          1.0     0.965414      0.780282      0.698996     Biso  1.000000 N
   N          1.0     0.699970      0.669393      0.265529     Biso  1.000000 N
   N          1.0     0.799991      0.169362      0.234444     Biso  1.000000 N
   N          1.0     0.299992      0.330635      0.734442     Biso  1.000000 N
   N          1.0     0.199970      0.830600      0.765527     Biso  1.000000 N
   N          1.0     0.265770      0.807653      0.479135     Biso  1.000000 N
   N          1.0     0.234220      0.307687      0.020873     Biso  1.000000 N
   N          1.0     0.734221      0.192311      0.520871     Biso  1.000000 N
   N          1.0     0.765773      0.692340      0.979133     Biso  1.000000 N
   N          1.0     0.457025      0.627807      0.522805     Biso  1.000000 N
   N          1.0     0.042960      0.127848      0.977164     Biso  1.000000 N
   N          1.0     0.542960      0.372150      0.477167     Biso  1.000000 N
   N          1.0     0.957023      0.872185      0.022807     Biso  1.000000 N
   N          1.0     0.124946      0.530300      0.375995     Biso  1.000000 N
   N          1.0     0.375041      0.030314      0.123957     Biso  1.000000 N
   N          1.0     0.875043      0.469683      0.623954     Biso  1.000000 N
   N          1.0     0.624947      0.969692      0.875992     Biso  1.000000 N
   H          1.0     0.899372      0.534081      0.331376     Biso  1.000000 H
   H          1.0     0.600654      0.034099      0.168542     Biso  1.000000 H
   H          1.0     0.100655      0.465899      0.668539     Biso  1.000000 H
   H          1.0     0.399372      0.965912      0.831374     Biso  1.000000 H
   H          1.0     0.242037      0.454923      0.395007     Biso  1.000000 H
   H          1.0     0.258039      0.954936      0.104867     Biso  1.000000 H
   H          1.0     0.758041      0.545057      0.604865     Biso  1.000000 H
   H          1.0     0.742037      0.045074      0.895005     Biso  1.000000 H
   C          1.0     0.098844      0.733152      0.415365     Biso  1.000000 C
   C          1.0     0.401154      0.233172      0.084636     Biso  1.000000 C
   C          1.0     0.901155      0.266825      0.584634     Biso  1.000000 C
   C          1.0     0.598843      0.766841      0.915363     Biso  1.000000 C
   C          1.0     0.858648      0.752506      0.323734     Biso  1.000000 C
   C          1.0     0.641314      0.252502      0.176275     Biso  1.000000 C
   C          1.0     0.141315      0.247496      0.676273     Biso  1.000000 C
   C          1.0     0.358651      0.747486      0.823731     Biso  1.000000 C
   C          1.0     0.218868      0.621033      0.438875     Biso  1.000000 C
   C          1.0     0.281109      0.121062      0.061093     Biso  1.000000 C
   C          1.0     0.781108      0.378935      0.561089     Biso  1.000000 C
   C          1.0     0.718868      0.878960      0.938872     Biso  1.000000 C
