#======================================================================

# CRYSTAL DATA

#----------------------------------------------------------------------

data_VESTA_phase_1


_chemical_name_common                  '# Quantum Espresso PWSCF output snapsh'
_cell_length_a                         3.86252
_cell_length_b                         11.69926
_cell_length_c                         10.31656
_cell_angle_alpha                      89.99992
_cell_angle_beta                       85.58953
_cell_angle_gamma                      90
_space_group_name_H-M_alt              'P 1'
_space_group_IT_number                 1

loop_
_space_group_symop_operation_xyz
   'x, y, z'

loop_
   _atom_site_label
   _atom_site_occupancy
   _atom_site_fract_x
   _atom_site_fract_y
   _atom_site_fract_z
   _atom_site_adp_type
   _atom_site_B_iso_or_equiv
   _atom_site_type_symbol
   K          1.0     0.285943      0.052732      0.403868     Biso  1.000000 K
   K          1.0     0.214062      0.552736      0.096134     Biso  1.000000 K
   K          1.0     0.714061      0.947252      0.596134     Biso  1.000000 K
   K          1.0     0.785943      0.447256      0.903868     Biso  1.000000 K
   O          1.0     0.815158      0.952534      0.322114     Biso  1.000000 O
   O          1.0     0.684848      0.452533      0.177891     Biso  1.000000 O
   O          1.0     0.184848      0.047455      0.677891     Biso  1.000000 O
   O          1.0     0.315158      0.547454      0.822114     Biso  1.000000 O
   O          1.0     0.491503      0.743415      0.547525     Biso  1.000000 O
   O          1.0     0.008486      0.243423      0.952472     Biso  1.000000 O
   O          1.0     0.508486      0.256565      0.452472     Biso  1.000000 O
   O          1.0     0.991503      0.756573      0.047525     Biso  1.000000 O
   N          1.0     0.723411      0.852127      0.288948     Biso  1.000000 N
   N          1.0     0.776588      0.352124      0.211053     Biso  1.000000 N
   N          1.0     0.276587      0.147864      0.711053     Biso  1.000000 N
   N          1.0     0.223411      0.647861      0.788947     Biso  1.000000 N
   N          1.0     0.470441      0.830211      0.210834     Biso  1.000000 N
   N          1.0     0.029554      0.330203      0.289167     Biso  1.000000 N
   N          1.0     0.529553      0.169785      0.789167     Biso  1.000000 N
   N          1.0     0.970442      0.669777      0.710834     Biso  1.000000 N
   N          1.0     0.464071      0.719248      0.198942     Biso  1.000000 N
   N          1.0     0.035914      0.219239      0.301054     Biso  1.000000 N
   N          1.0     0.535914      0.280749      0.801054     Biso  1.000000 N
   N          1.0     0.964071      0.780740      0.698942     Biso  1.000000 N
   N          1.0     0.699469      0.669024      0.265660     Biso  1.000000 N
   N          1.0     0.800512      0.169020      0.234334     Biso  1.000000 N
   N          1.0     0.300513      0.330968      0.734334     Biso  1.000000 N
   N          1.0     0.199469      0.830964      0.765660     Biso  1.000000 N
   N          1.0     0.266770      0.807960      0.479289     Biso  1.000000 N
   N          1.0     0.233223      0.307966      0.020709     Biso  1.000000 N
   N          1.0     0.733223      0.192022      0.520709     Biso  1.000000 N
   N          1.0     0.766771      0.692028      0.979288     Biso  1.000000 N
   N          1.0     0.457454      0.627351      0.523031     Biso  1.000000 N
   N          1.0     0.042527      0.127359      0.976964     Biso  1.000000 N
   N          1.0     0.542528      0.372629      0.476964     Biso  1.000000 N
   N          1.0     0.957455      0.872637      0.023031     Biso  1.000000 N
   N          1.0     0.123691      0.530116      0.375711     Biso  1.000000 N
   N          1.0     0.376286      0.030121      0.124281     Biso  1.000000 N
   N          1.0     0.876288      0.469867      0.624281     Biso  1.000000 N
   N          1.0     0.623692      0.969871      0.875712     Biso  1.000000 N
   H          1.0     0.896909      0.534143      0.331169     Biso  1.000000 H
   H          1.0     0.603070      0.034147      0.168824     Biso  1.000000 H
   H          1.0     0.103069      0.465841      0.668824     Biso  1.000000 H
   H          1.0     0.396908      0.965845      0.831169     Biso  1.000000 H
   H          1.0     0.242019      0.454530      0.394296     Biso  1.000000 H
   H          1.0     0.257954      0.954536      0.105695     Biso  1.000000 H
   H          1.0     0.757955      0.545452      0.605695     Biso  1.000000 H
   H          1.0     0.742018      0.045458      0.894297     Biso  1.000000 H
   C          1.0     0.098579      0.733322      0.415615     Biso  1.000000 C
   C          1.0     0.401409      0.233327      0.084380     Biso  1.000000 C
   C          1.0     0.901409      0.266662      0.584380     Biso  1.000000 C
   C          1.0     0.598579      0.766666      0.915615     Biso  1.000000 C
   C          1.0     0.858772      0.752566      0.323525     Biso  1.000000 C
   C          1.0     0.641218      0.252565      0.176472     Biso  1.000000 C
   C          1.0     0.141218      0.247423      0.676472     Biso  1.000000 C
   C          1.0     0.358773      0.747423      0.823525     Biso  1.000000 C
   C          1.0     0.218332      0.620804      0.439001     Biso  1.000000 C
   C          1.0     0.281652      0.120808      0.060993     Biso  1.000000 C
   C          1.0     0.781652      0.379179      0.560993     Biso  1.000000 C
   C          1.0     0.718331      0.879185      0.939001     Biso  1.000000 C
