#======================================================================

# CRYSTAL DATA

#----------------------------------------------------------------------

data_VESTA_phase_1


_chemical_name_common                  '# Quantum Espresso PWSCF output snapsh'
_cell_length_a                         3.85201
_cell_length_b                         11.67846
_cell_length_c                         10.29325
_cell_angle_alpha                      89.99985
_cell_angle_beta                       85.46304
_cell_angle_gamma                      89.99991
_space_group_name_H-M_alt              'P 1'
_space_group_IT_number                 1

loop_
_space_group_symop_operation_xyz
   'x, y, z'

loop_
   _atom_site_label
   _atom_site_occupancy
   _atom_site_fract_x
   _atom_site_fract_y
   _atom_site_fract_z
   _atom_site_adp_type
   _atom_site_B_iso_or_equiv
   _atom_site_type_symbol
   K          1.0     0.286261      0.052724      0.404185     Biso  1.000000 K
   K          1.0     0.213735      0.552726      0.095811     Biso  1.000000 K
   K          1.0     0.713734      0.947258      0.595811     Biso  1.000000 K
   K          1.0     0.786261      0.447260      0.904185     Biso  1.000000 K
   O          1.0     0.816101      0.952783      0.321464     Biso  1.000000 O
   O          1.0     0.683896      0.452783      0.178533     Biso  1.000000 O
   O          1.0     0.183896      0.047201      0.678533     Biso  1.000000 O
   O          1.0     0.316101      0.547201      0.821464     Biso  1.000000 O
   O          1.0     0.492164      0.743346      0.547664     Biso  1.000000 O
   O          1.0     0.007823      0.243351      0.952328     Biso  1.000000 O
   O          1.0     0.507824      0.256634      0.452328     Biso  1.000000 O
   O          1.0     0.992164      0.756638      0.047664     Biso  1.000000 O
   N          1.0     0.723294      0.852227      0.288679     Biso  1.000000 N
   N          1.0     0.776698      0.352225      0.211316     Biso  1.000000 N
   N          1.0     0.276698      0.147759      0.711316     Biso  1.000000 N
   N          1.0     0.223295      0.647757      0.788679     Biso  1.000000 N
   N          1.0     0.469794      0.830171      0.210619     Biso  1.000000 N
   N          1.0     0.030198      0.330167      0.289376     Biso  1.000000 N
   N          1.0     0.530197      0.169818      0.789376     Biso  1.000000 N
   N          1.0     0.969793      0.669813      0.710619     Biso  1.000000 N
   N          1.0     0.463446      0.719029      0.198935     Biso  1.000000 N
   N          1.0     0.036539      0.219024      0.301057     Biso  1.000000 N
   N          1.0     0.536539      0.280961      0.801057     Biso  1.000000 N
   N          1.0     0.963446      0.780955      0.698936     Biso  1.000000 N
   N          1.0     0.699245      0.668850      0.265740     Biso  1.000000 N
   N          1.0     0.800738      0.168847      0.234251     Biso  1.000000 N
   N          1.0     0.300738      0.331137      0.734251     Biso  1.000000 N
   N          1.0     0.199245      0.831135      0.765740     Biso  1.000000 N
   N          1.0     0.267245      0.808110      0.479384     Biso  1.000000 N
   N          1.0     0.232746      0.308113      0.020610     Biso  1.000000 N
   N          1.0     0.732745      0.191871      0.520609     Biso  1.000000 N
   N          1.0     0.767244      0.691875      0.979384     Biso  1.000000 N
   N          1.0     0.457657      0.627128      0.523146     Biso  1.000000 N
   N          1.0     0.042326      0.127133      0.976845     Biso  1.000000 N
   N          1.0     0.542327      0.372852      0.476845     Biso  1.000000 N
   N          1.0     0.957658      0.872856      0.023147     Biso  1.000000 N
   N          1.0     0.123105      0.530028      0.375572     Biso  1.000000 N
   N          1.0     0.376875      0.030031      0.124418     Biso  1.000000 N
   N          1.0     0.876877      0.469954      0.624418     Biso  1.000000 N
   N          1.0     0.623107      0.969955      0.875573     Biso  1.000000 N
   H          1.0     0.895755      0.534172      0.331064     Biso  1.000000 H
   H          1.0     0.604226      0.034175      0.168927     Biso  1.000000 H
   H          1.0     0.104226      0.465810      0.668927     Biso  1.000000 H
   H          1.0     0.395754      0.965812      0.831064     Biso  1.000000 H
   H          1.0     0.242065      0.454343      0.393928     Biso  1.000000 H
   H          1.0     0.257914      0.954345      0.106061     Biso  1.000000 H
   H          1.0     0.757914      0.545639      0.606061     Biso  1.000000 H
   H          1.0     0.742065      0.045642      0.893929     Biso  1.000000 H
   C          1.0     0.098446      0.733404      0.415758     Biso  1.000000 C
   C          1.0     0.401539      0.233406      0.084234     Biso  1.000000 C
   C          1.0     0.901541      0.266578      0.584235     Biso  1.000000 C
   C          1.0     0.598448      0.766580      0.915758     Biso  1.000000 C
   C          1.0     0.858822      0.752595      0.323447     Biso  1.000000 C
   C          1.0     0.641167      0.252594      0.176546     Biso  1.000000 C
   C          1.0     0.141166      0.247390      0.676546     Biso  1.000000 C
   C          1.0     0.358821      0.747390      0.823447     Biso  1.000000 C
   C          1.0     0.218080      0.620691      0.439069     Biso  1.000000 C
   C          1.0     0.281907      0.120693      0.060923     Biso  1.000000 C
   C          1.0     0.781905      0.379290      0.560922     Biso  1.000000 C
   C          1.0     0.718077      0.879295      0.939068     Biso  1.000000 C
