#======================================================================

# CRYSTAL DATA

#----------------------------------------------------------------------

data_VESTA_phase_1


_chemical_name_common                  '# Quantum Espresso PWSCF output snapsh'
_cell_length_a                         3.84172
_cell_length_b                         11.65829
_cell_length_c                         10.27081
_cell_angle_alpha                      89.99971
_cell_angle_beta                       85.34045
_cell_angle_gamma                      89.99982
_space_group_name_H-M_alt              'P 1'
_space_group_IT_number                 1

loop_
_space_group_symop_operation_xyz
   'x, y, z'

loop_
   _atom_site_label
   _atom_site_occupancy
   _atom_site_fract_x
   _atom_site_fract_y
   _atom_site_fract_z
   _atom_site_adp_type
   _atom_site_B_iso_or_equiv
   _atom_site_type_symbol
   K          1.0     0.286566      0.052722      0.404498     Biso  1.000000 K
   K          1.0     0.213423      0.552723      0.095501     Biso  1.000000 K
   K          1.0     0.713423      0.947259      0.595501     Biso  1.000000 K
   K          1.0     0.786566      0.447260      0.904499     Biso  1.000000 K
   O          1.0     0.817007      0.953018      0.320864     Biso  1.000000 O
   O          1.0     0.682983      0.453018      0.179137     Biso  1.000000 O
   O          1.0     0.182982      0.046964      0.679137     Biso  1.000000 O
   O          1.0     0.317007      0.546964      0.820863     Biso  1.000000 O
   O          1.0     0.492794      0.743279      0.547807     Biso  1.000000 O
   O          1.0     0.007191      0.243281      0.952191     Biso  1.000000 O
   O          1.0     0.507191      0.256700      0.452190     Biso  1.000000 O
   O          1.0     0.992794      0.756703      0.047807     Biso  1.000000 O
   N          1.0     0.723162      0.852325      0.288439     Biso  1.000000 N
   N          1.0     0.776825      0.352324      0.211560     Biso  1.000000 N
   N          1.0     0.276825      0.147657      0.711560     Biso  1.000000 N
   N          1.0     0.223163      0.647656      0.788439     Biso  1.000000 N
   N          1.0     0.469148      0.830137      0.210427     Biso  1.000000 N
   N          1.0     0.030839      0.330135      0.289573     Biso  1.000000 N
   N          1.0     0.530838      0.169847      0.789572     Biso  1.000000 N
   N          1.0     0.969148      0.669844      0.710426     Biso  1.000000 N
   N          1.0     0.462827      0.718821      0.198937     Biso  1.000000 N
   N          1.0     0.037156      0.218818      0.301061     Biso  1.000000 N
   N          1.0     0.537157      0.281164      0.801061     Biso  1.000000 N
   N          1.0     0.962827      0.781160      0.698937     Biso  1.000000 N
   N          1.0     0.699019      0.668681      0.265821     Biso  1.000000 N
   N          1.0     0.800962      0.168680      0.234176     Biso  1.000000 N
   N          1.0     0.300964      0.331302      0.734176     Biso  1.000000 N
   N          1.0     0.199020      0.831301      0.765821     Biso  1.000000 N
   N          1.0     0.267687      0.808253      0.479485     Biso  1.000000 N
   N          1.0     0.232301      0.308254      0.020514     Biso  1.000000 N
   N          1.0     0.732299      0.191726      0.520513     Biso  1.000000 N
   N          1.0     0.767686      0.691729      0.979484     Biso  1.000000 N
   N          1.0     0.457842      0.626912      0.523266     Biso  1.000000 N
   N          1.0     0.042137      0.126915      0.976730     Biso  1.000000 N
   N          1.0     0.542139      0.373067      0.476731     Biso  1.000000 N
   N          1.0     0.957845      0.873069      0.023266     Biso  1.000000 N
   N          1.0     0.122526      0.529940      0.375444     Biso  1.000000 N
   N          1.0     0.377451      0.029945      0.124550     Biso  1.000000 N
   N          1.0     0.877455      0.470039      0.624552     Biso  1.000000 N
   N          1.0     0.622529      0.970039      0.875446     Biso  1.000000 N
   H          1.0     0.894630      0.534203      0.330967     Biso  1.000000 H
   H          1.0     0.605353      0.034204      0.169030     Biso  1.000000 H
   H          1.0     0.105351      0.465778      0.669030     Biso  1.000000 H
   H          1.0     0.394628      0.965779      0.830967     Biso  1.000000 H
   H          1.0     0.242113      0.454161      0.393580     Biso  1.000000 H
   H          1.0     0.257867      0.954162      0.106415     Biso  1.000000 H
   H          1.0     0.757867      0.545819      0.606415     Biso  1.000000 H
   H          1.0     0.742113      0.045821      0.893581     Biso  1.000000 H
   C          1.0     0.098298      0.733481      0.415907     Biso  1.000000 C
   C          1.0     0.401682      0.233484      0.084089     Biso  1.000000 C
   C          1.0     0.901686      0.266499      0.584090     Biso  1.000000 C
   C          1.0     0.598300      0.766500      0.915908     Biso  1.000000 C
   C          1.0     0.858862      0.752620      0.323380     Biso  1.000000 C
   C          1.0     0.641125      0.252619      0.176619     Biso  1.000000 C
   C          1.0     0.141123      0.247362      0.676617     Biso  1.000000 C
   C          1.0     0.358862      0.747363      0.823380     Biso  1.000000 C
   C          1.0     0.217830      0.620582      0.439143     Biso  1.000000 C
   C          1.0     0.282159      0.120579      0.060857     Biso  1.000000 C
   C          1.0     0.782155      0.379400      0.560854     Biso  1.000000 C
   C          1.0     0.717826      0.879403      0.939141     Biso  1.000000 C
