#======================================================================

# CRYSTAL DATA

#----------------------------------------------------------------------

data_VESTA_phase_1


_chemical_name_common                  '# Quantum Espresso PWSCF output snapsh'
_cell_length_a                         4.16195
_cell_length_b                         12.52541
_cell_length_c                         11.92307
_cell_angle_alpha                      90
_cell_angle_beta                       89.71095
_cell_angle_gamma                      90
_space_group_name_H-M_alt              'P 1'
_space_group_IT_number                 1

loop_
_space_group_symop_operation_xyz
   'x, y, z'

loop_
   _atom_site_label
   _atom_site_occupancy
   _atom_site_fract_x
   _atom_site_fract_y
   _atom_site_fract_z
   _atom_site_adp_type
   _atom_site_B_iso_or_equiv
   _atom_site_type_symbol
   K          1.0     0.276349      0.074097      0.366928     Biso  1.000000 K
   K          1.0     0.223588      0.574084      0.133036     Biso  1.000000 K
   K          1.0     0.723587      0.925916      0.633037     Biso  1.000000 K
   K          1.0     0.776348      0.425904      0.866929     Biso  1.000000 K
   O          1.0     0.791943      0.946443      0.398658     Biso  1.000000 O
   O          1.0     0.708022      0.446440      0.101301     Biso  1.000000 O
   O          1.0     0.208022      0.053562      0.601303     Biso  1.000000 O
   O          1.0     0.291942      0.553558      0.898661     Biso  1.000000 O
   O          1.0     0.454004      0.731423      0.560090     Biso  1.000000 O
   O          1.0     0.046004      0.231416      0.939921     Biso  1.000000 O
   O          1.0     0.546005      0.268586      0.439920     Biso  1.000000 O
   O          1.0     0.954006      0.768578      0.060089     Biso  1.000000 O
   N          1.0     0.726123      0.860622      0.342828     Biso  1.000000 N
   N          1.0     0.773866      0.360634      0.157156     Biso  1.000000 N
   N          1.0     0.273865      0.139365      0.657157     Biso  1.000000 N
   N          1.0     0.226123      0.639379      0.842829     Biso  1.000000 N
   N          1.0     0.498906      0.856590      0.261766     Biso  1.000000 N
   N          1.0     1.001101      0.356624      0.238212     Biso  1.000000 N
   N          1.0     0.501099      0.143377      0.738213     Biso  1.000000 N
   N          1.0    -0.001096      0.643411      0.761768     Biso  1.000000 N
   N          1.0     0.489300      0.756582      0.227050     Biso  1.000000 N
   N          1.0     0.010719      0.256624      0.272954     Biso  1.000000 N
   N          1.0     0.510718      0.243377      0.772956     Biso  1.000000 N
   N          1.0     0.989299      0.743419      0.727051     Biso  1.000000 N
   N          1.0     0.702612      0.695646      0.281859     Biso  1.000000 N
   N          1.0     0.797400      0.195672      0.218165     Biso  1.000000 N
   N          1.0     0.297400      0.304329      0.718166     Biso  1.000000 N
   N          1.0     0.202611      0.804355      0.781860     Biso  1.000000 N
   N          1.0     0.236191      0.794245      0.503651     Biso  1.000000 N
   N          1.0     0.263804      0.294242      0.996362     Biso  1.000000 N
   N          1.0     0.763805      0.205760      0.496361     Biso  1.000000 N
   N          1.0     0.736192      0.705755      0.003651     Biso  1.000000 N
   N          1.0     0.437407      0.624988      0.525149     Biso  1.000000 N
   N          1.0     0.062604      0.124983      0.974868     Biso  1.000000 N
   N          1.0     0.562604      0.375018      0.474866     Biso  1.000000 N
   N          1.0     0.937408      0.875012      0.025148     Biso  1.000000 N
   N          1.0     0.137903      0.537823      0.383415     Biso  1.000000 N
   N          1.0     0.362121      0.037820      0.116594     Biso  1.000000 N
   N          1.0     0.862124      0.462182      0.616595     Biso  1.000000 N
   N          1.0     0.637902      0.962176      0.883416     Biso  1.000000 N
   H          1.0     0.917194      0.537207      0.347486     Biso  1.000000 H
   H          1.0     0.582794      0.037208      0.152550     Biso  1.000000 H
   H          1.0     0.082792      0.462792      0.652551     Biso  1.000000 H
   H          1.0     0.417194      0.962793      0.847487     Biso  1.000000 H
   H          1.0     0.242287      0.466499      0.404448     Biso  1.000000 H
   H          1.0     0.257734      0.966492      0.095569     Biso  1.000000 H
   H          1.0     0.757733      0.533508      0.595570     Biso  1.000000 H
   H          1.0     0.742286      0.033503      0.904450     Biso  1.000000 H
   C          1.0     0.088830      0.729745      0.433698     Biso  1.000000 C
   C          1.0     0.411161      0.229744      0.066319     Biso  1.000000 C
   C          1.0     0.911161      0.270256      0.566320     Biso  1.000000 C
   C          1.0     0.588831      0.770256      0.933699     Biso  1.000000 C
   C          1.0     0.850137      0.760845      0.354741     Biso  1.000000 C
   C          1.0     0.649858      0.260855      0.145272     Biso  1.000000 C
   C          1.0     0.149855      0.239147      0.645272     Biso  1.000000 C
   C          1.0     0.350135      0.739155      0.854741     Biso  1.000000 C
   C          1.0     0.215075      0.623311      0.446152     Biso  1.000000 C
   C          1.0     0.284934      0.123309      0.053865     Biso  1.000000 C
   C          1.0     0.784932      0.376692      0.553866     Biso  1.000000 C
   C          1.0     0.715076      0.876690      0.946154     Biso  1.000000 C
