#======================================================================

# CRYSTAL DATA

#----------------------------------------------------------------------

data_VESTA_phase_1


_chemical_name_common                  '# Quantum Espresso PWSCF output snapsh'
_cell_length_a                         4.06405
_cell_length_b                         12.42526
_cell_length_c                         11.57493
_cell_angle_alpha                      90.00002
_cell_angle_beta                       88.72706
_cell_angle_gamma                      89.99998
_space_group_name_H-M_alt              'P 1'
_space_group_IT_number                 1

loop_
_space_group_symop_operation_xyz
   'x, y, z'

loop_
   _atom_site_label
   _atom_site_occupancy
   _atom_site_fract_x
   _atom_site_fract_y
   _atom_site_fract_z
   _atom_site_adp_type
   _atom_site_B_iso_or_equiv
   _atom_site_type_symbol
   K          1.0     0.283025      0.074369      0.367439     Biso  1.000000 K
   K          1.0     0.216971      0.574369      0.132562     Biso  1.000000 K
   K          1.0     0.716971      0.925640      0.632562     Biso  1.000000 K
   K          1.0     0.783026      0.425640      0.867439     Biso  1.000000 K
   O          1.0     0.798367      0.948033      0.395344     Biso  1.000000 O
   O          1.0     0.701629      0.448033      0.104656     Biso  1.000000 O
   O          1.0     0.201630      0.051974      0.604656     Biso  1.000000 O
   O          1.0     0.298367      0.551974      0.895345     Biso  1.000000 O
   O          1.0     0.459304      0.730751      0.562503     Biso  1.000000 O
   O          1.0     0.040694      0.230751      0.937498     Biso  1.000000 O
   O          1.0     0.540694      0.269256      0.437498     Biso  1.000000 O
   O          1.0     0.959303      0.769256      0.062503     Biso  1.000000 O
   N          1.0     0.726128      0.861397      0.339717     Biso  1.000000 N
   N          1.0     0.773870      0.361397      0.160284     Biso  1.000000 N
   N          1.0     0.273869      0.138611      0.660284     Biso  1.000000 N
   N          1.0     0.226128      0.638611      0.839717     Biso  1.000000 N
   N          1.0     0.492506      0.857024      0.258309     Biso  1.000000 N
   N          1.0     0.007490      0.357024      0.241692     Biso  1.000000 N
   N          1.0     0.507491      0.142983      0.741692     Biso  1.000000 N
   N          1.0     0.992506      0.642983      0.758309     Biso  1.000000 N
   N          1.0     0.477355      0.755795      0.225086     Biso  1.000000 N
   N          1.0     0.022641      0.255795      0.274915     Biso  1.000000 N
   N          1.0     0.522641      0.244213      0.774915     Biso  1.000000 N
   N          1.0     0.977356      0.744212      0.725086     Biso  1.000000 N
   N          1.0     0.693019      0.694330      0.281178     Biso  1.000000 N
   N          1.0     0.806978      0.194330      0.218823     Biso  1.000000 N
   N          1.0     0.306978      0.305677      0.718823     Biso  1.000000 N
   N          1.0     0.193019      0.805676      0.781178     Biso  1.000000 N
   N          1.0     0.240596      0.794739      0.504535     Biso  1.000000 N
   N          1.0     0.259401      0.294739      0.995466     Biso  1.000000 N
   N          1.0     0.759402      0.205270      0.495466     Biso  1.000000 N
   N          1.0     0.740595      0.705270      0.004535     Biso  1.000000 N
   N          1.0     0.436642      0.623352      0.528204     Biso  1.000000 N
   N          1.0     0.063354      0.123352      0.971797     Biso  1.000000 N
   N          1.0     0.563354      0.376656      0.471797     Biso  1.000000 N
   N          1.0     0.936642      0.876656      0.028204     Biso  1.000000 N
   N          1.0     0.128958      0.536943      0.383418     Biso  1.000000 N
   N          1.0     0.371037      0.036942      0.116583     Biso  1.000000 N
   N          1.0     0.871036      0.463065      0.616583     Biso  1.000000 N
   N          1.0     0.628959      0.963065      0.883418     Biso  1.000000 N
   H          1.0     0.902317      0.536998      0.348240     Biso  1.000000 H
   H          1.0     0.597680      0.036998      0.151761     Biso  1.000000 H
   H          1.0     0.097680      0.463009      0.651761     Biso  1.000000 H
   H          1.0     0.402317      0.963009      0.848240     Biso  1.000000 H
   H          1.0     0.237054      0.464981      0.403198     Biso  1.000000 H
   H          1.0     0.262942      0.964981      0.096802     Biso  1.000000 H
   H          1.0     0.762942      0.535026      0.596802     Biso  1.000000 H
   H          1.0     0.737054      0.035026      0.903198     Biso  1.000000 H
   C          1.0     0.087335      0.729719      0.434442     Biso  1.000000 C
   C          1.0     0.412661      0.229720      0.065558     Biso  1.000000 C
   C          1.0     0.912658      0.270288      0.565557     Biso  1.000000 C
   C          1.0     0.587338      0.770288      0.934443     Biso  1.000000 C
   C          1.0     0.847591      0.760667      0.353376     Biso  1.000000 C
   C          1.0     0.652406      0.260666      0.146625     Biso  1.000000 C
   C          1.0     0.152409      0.239341      0.646626     Biso  1.000000 C
   C          1.0     0.347588      0.739340      0.853375     Biso  1.000000 C
   C          1.0     0.210805      0.622251      0.447685     Biso  1.000000 C
   C          1.0     0.289191      0.122252      0.052316     Biso  1.000000 C
   C          1.0     0.789192      0.377755      0.552315     Biso  1.000000 C
   C          1.0     0.710804      0.877755      0.947685     Biso  1.000000 C
