#======================================================================

# CRYSTAL DATA

#----------------------------------------------------------------------

data_VESTA_phase_1


_chemical_name_common                  '# Quantum Espresso PWSCF output snapsh'
_cell_length_a                         4.04700
_cell_length_b                         12.39004
_cell_length_c                         11.46276
_cell_angle_alpha                      90.00002
_cell_angle_beta                       88.48596
_cell_angle_gamma                      89.99998
_space_group_name_H-M_alt              'P 1'
_space_group_IT_number                 1

loop_
_space_group_symop_operation_xyz
   'x, y, z'

loop_
   _atom_site_label
   _atom_site_occupancy
   _atom_site_fract_x
   _atom_site_fract_y
   _atom_site_fract_z
   _atom_site_adp_type
   _atom_site_B_iso_or_equiv
   _atom_site_type_symbol
   K          1.0     0.284742      0.073868      0.368497     Biso  1.000000 K
   K          1.0     0.215256      0.573868      0.131506     Biso  1.000000 K
   K          1.0     0.715256      0.926138      0.631506     Biso  1.000000 K
   K          1.0     0.784742      0.426138      0.868497     Biso  1.000000 K
   O          1.0     0.799897      0.948271      0.393040     Biso  1.000000 O
   O          1.0     0.700101      0.448271      0.106963     Biso  1.000000 O
   O          1.0     0.200102      0.051733      0.606962     Biso  1.000000 O
   O          1.0     0.299897      0.551733      0.893040     Biso  1.000000 O
   O          1.0     0.460814      0.730939      0.562800     Biso  1.000000 O
   O          1.0     0.039185      0.230939      0.937203     Biso  1.000000 O
   O          1.0     0.539186      0.269065      0.437203     Biso  1.000000 O
   O          1.0     0.960814      0.769065      0.062800     Biso  1.000000 O
   N          1.0     0.726059      0.861091      0.337861     Biso  1.000000 N
   N          1.0     0.773941      0.361091      0.162142     Biso  1.000000 N
   N          1.0     0.273940      0.138913      0.662142     Biso  1.000000 N
   N          1.0     0.226059      0.638913      0.837861     Biso  1.000000 N
   N          1.0     0.490541      0.856130      0.256490     Biso  1.000000 N
   N          1.0     0.009458      0.356131      0.243514     Biso  1.000000 N
   N          1.0     0.509458      0.143873      0.743514     Biso  1.000000 N
   N          1.0     0.990540      0.643873      0.756490     Biso  1.000000 N
   N          1.0     0.474381      0.754378      0.224142     Biso  1.000000 N
   N          1.0     0.025617      0.254378      0.275861     Biso  1.000000 N
   N          1.0     0.525617      0.245626      0.775861     Biso  1.000000 N
   N          1.0     0.974382      0.745626      0.724142     Biso  1.000000 N
   N          1.0     0.691071      0.693132      0.280764     Biso  1.000000 N
   N          1.0     0.808928      0.193131      0.219239     Biso  1.000000 N
   N          1.0     0.308928      0.306872      0.719239     Biso  1.000000 N
   N          1.0     0.191071      0.806872      0.780764     Biso  1.000000 N
   N          1.0     0.241971      0.795108      0.504192     Biso  1.000000 N
   N          1.0     0.258028      0.295108      0.995812     Biso  1.000000 N
   N          1.0     0.758029      0.204898      0.495812     Biso  1.000000 N
   N          1.0     0.741970      0.704898      0.004192     Biso  1.000000 N
   N          1.0     0.436751      0.623135      0.528890     Biso  1.000000 N
   N          1.0     0.063247      0.123135      0.971114     Biso  1.000000 N
   N          1.0     0.563247      0.376870      0.471114     Biso  1.000000 N
   N          1.0     0.936751      0.876870      0.028890     Biso  1.000000 N
   N          1.0     0.127361      0.536581      0.383197     Biso  1.000000 N
   N          1.0     0.372635      0.036581      0.116806     Biso  1.000000 N
   N          1.0     0.872635      0.463424      0.616806     Biso  1.000000 N
   N          1.0     0.627362      0.963423      0.883197     Biso  1.000000 N
   H          1.0     0.899742      0.536844      0.348008     Biso  1.000000 H
   H          1.0     0.600257      0.036844      0.151996     Biso  1.000000 H
   H          1.0     0.100257      0.463160      0.651996     Biso  1.000000 H
   H          1.0     0.399742      0.963160      0.848008     Biso  1.000000 H
   H          1.0     0.236487      0.464442      0.402643     Biso  1.000000 H
   H          1.0     0.263511      0.964442      0.097360     Biso  1.000000 H
   H          1.0     0.763511      0.535561      0.597360     Biso  1.000000 H
   H          1.0     0.736487      0.035561      0.902643     Biso  1.000000 H
   C          1.0     0.087318      0.729692      0.434216     Biso  1.000000 C
   C          1.0     0.412680      0.229692      0.065787     Biso  1.000000 C
   C          1.0     0.912677      0.270312      0.565786     Biso  1.000000 C
   C          1.0     0.587321      0.770313      0.934217     Biso  1.000000 C
   C          1.0     0.847323      0.760210      0.352422     Biso  1.000000 C
   C          1.0     0.652676      0.260209      0.147581     Biso  1.000000 C
   C          1.0     0.152679      0.239795      0.647582     Biso  1.000000 C
   C          1.0     0.347320      0.739794      0.852421     Biso  1.000000 C
   C          1.0     0.210209      0.621959      0.447875     Biso  1.000000 C
   C          1.0     0.289789      0.121960      0.052128     Biso  1.000000 C
   C          1.0     0.789790      0.378043      0.552127     Biso  1.000000 C
   C          1.0     0.710208      0.878044      0.947876     Biso  1.000000 C
