#======================================================================

# CRYSTAL DATA

#----------------------------------------------------------------------

data_VESTA_phase_1


_chemical_name_common                  '# Quantum Espresso PWSCF output snapsh'
_cell_length_a                         4.04548
_cell_length_b                         12.35265
_cell_length_c                         11.31683
_cell_angle_alpha                      90
_cell_angle_beta                       88.31987
_cell_angle_gamma                      89.99998
_space_group_name_H-M_alt              'P 1'
_space_group_IT_number                 1

loop_
_space_group_symop_operation_xyz
   'x, y, z'

loop_
   _atom_site_label
   _atom_site_occupancy
   _atom_site_fract_x
   _atom_site_fract_y
   _atom_site_fract_z
   _atom_site_adp_type
   _atom_site_B_iso_or_equiv
   _atom_site_type_symbol
   K          1.0     0.286564      0.072224      0.371453     Biso  1.000000 K
   K          1.0     0.213437      0.572224      0.128547     Biso  1.000000 K
   K          1.0     0.713436      0.927783      0.628547     Biso  1.000000 K
   K          1.0     0.786564      0.427783      0.871453     Biso  1.000000 K
   O          1.0     0.801472      0.948067      0.387569     Biso  1.000000 O
   O          1.0     0.698529      0.448066      0.112431     Biso  1.000000 O
   O          1.0     0.198529      0.051941      0.612431     Biso  1.000000 O
   O          1.0     0.301472      0.551941      0.887569     Biso  1.000000 O
   O          1.0     0.462749      0.731724      0.562213     Biso  1.000000 O
   O          1.0     0.037252      0.231724      0.937787     Biso  1.000000 O
   O          1.0     0.537251      0.268283      0.437787     Biso  1.000000 O
   O          1.0     0.962749      0.768283      0.062213     Biso  1.000000 O
   N          1.0     0.726065      0.859764      0.333724     Biso  1.000000 N
   N          1.0     0.773936      0.359764      0.166275     Biso  1.000000 N
   N          1.0     0.273935      0.140243      0.666275     Biso  1.000000 N
   N          1.0     0.226065      0.640243      0.833724     Biso  1.000000 N
   N          1.0     0.488288      0.853310      0.252616     Biso  1.000000 N
   N          1.0     0.011713      0.353310      0.247384     Biso  1.000000 N
   N          1.0     0.511713      0.146697      0.747384     Biso  1.000000 N
   N          1.0     0.988288      0.646697      0.752616     Biso  1.000000 N
   N          1.0     0.471741      0.750753      0.222112     Biso  1.000000 N
   N          1.0     0.028259      0.250753      0.277888     Biso  1.000000 N
   N          1.0     0.528259      0.249254      0.777888     Biso  1.000000 N
   N          1.0     0.971741      0.749254      0.722112     Biso  1.000000 N
   N          1.0     0.690088      0.690433      0.279666     Biso  1.000000 N
   N          1.0     0.809912      0.190433      0.220334     Biso  1.000000 N
   N          1.0     0.309912      0.309574      0.720334     Biso  1.000000 N
   N          1.0     0.190088      0.809574      0.779666     Biso  1.000000 N
   N          1.0     0.244105      0.795789      0.502439     Biso  1.000000 N
   N          1.0     0.255896      0.295789      0.997561     Biso  1.000000 N
   N          1.0     0.755895      0.204218      0.497561     Biso  1.000000 N
   N          1.0     0.744106      0.704218      0.002439     Biso  1.000000 N
   N          1.0     0.437335      0.623313      0.529210     Biso  1.000000 N
   N          1.0     0.062666      0.123313      0.970790     Biso  1.000000 N
   N          1.0     0.562666      0.376694      0.470790     Biso  1.000000 N
   N          1.0     0.937334      0.876694      0.029210     Biso  1.000000 N
   N          1.0     0.126629      0.535940      0.382649     Biso  1.000000 N
   N          1.0     0.373371      0.035940      0.117351     Biso  1.000000 N
   N          1.0     0.873371      0.464067      0.617351     Biso  1.000000 N
   N          1.0     0.626630      0.964067      0.882649     Biso  1.000000 N
   H          1.0     0.899319      0.536504      0.346869     Biso  1.000000 H
   H          1.0     0.600682      0.036504      0.153130     Biso  1.000000 H
   H          1.0     0.100682      0.463503      0.653130     Biso  1.000000 H
   H          1.0     0.399319      0.963503      0.846870     Biso  1.000000 H
   H          1.0     0.236511      0.463652      0.401888     Biso  1.000000 H
   H          1.0     0.263489      0.963652      0.098112     Biso  1.000000 H
   H          1.0     0.763489      0.536356      0.598112     Biso  1.000000 H
   H          1.0     0.736511      0.036356      0.901888     Biso  1.000000 H
   C          1.0     0.088147      0.729565      0.432908     Biso  1.000000 C
   C          1.0     0.411854      0.229565      0.067092     Biso  1.000000 C
   C          1.0     0.911854      0.270442      0.567092     Biso  1.000000 C
   C          1.0     0.588146      0.770442      0.932908     Biso  1.000000 C
   C          1.0     0.847834      0.758987      0.350091     Biso  1.000000 C
   C          1.0     0.652167      0.258987      0.149909     Biso  1.000000 C
   C          1.0     0.152167      0.241020      0.649909     Biso  1.000000 C
   C          1.0     0.347834      0.741020      0.850091     Biso  1.000000 C
   C          1.0     0.210368      0.621629      0.447550     Biso  1.000000 C
   C          1.0     0.289633      0.121629      0.052450     Biso  1.000000 C
   C          1.0     0.789633      0.378379      0.552450     Biso  1.000000 C
   C          1.0     0.710368      0.878379      0.947550     Biso  1.000000 C
