#======================================================================

# CRYSTAL DATA

#----------------------------------------------------------------------

data_VESTA_phase_1


_chemical_name_common                  '# Quantum Espresso PWSCF output snapsh'
_cell_length_a                         6.00099
_cell_length_b                         8.90100
_cell_length_c                         9.80948
_cell_angle_alpha                      89.99998
_cell_angle_beta                       102.64304
_cell_angle_gamma                      90.00002
_space_group_name_H-M_alt              'P 1'
_space_group_IT_number                 1

loop_
_space_group_symop_operation_xyz
   'x, y, z'

loop_
   _atom_site_label
   _atom_site_occupancy
   _atom_site_fract_x
   _atom_site_fract_y
   _atom_site_fract_z
   _atom_site_adp_type
   _atom_site_B_iso_or_equiv
   _atom_site_type_symbol
   Cd         1.0     0.549390      0.168019      0.882176     Biso  1.000000 Cd
   Cd         1.0     0.950619      0.668019      0.617826     Biso  1.000000 Cd
   Cd         1.0     0.450619      0.831981      0.117826     Biso  1.000000 Cd
   Cd         1.0     0.049390      0.331981      0.382176     Biso  1.000000 Cd
   N          1.0     0.386652      0.175801      0.058798     Biso  1.000000 N
   N          1.0     0.113357      0.675801      0.441204     Biso  1.000000 N
   N          1.0     0.613356      0.824200      0.941204     Biso  1.000000 N
   N          1.0     0.886652      0.324200      0.558798     Biso  1.000000 N
   C          1.0     0.277935      0.288029      0.105544     Biso  1.000000 C
   C          1.0     0.222074      0.788030      0.394458     Biso  1.000000 C
   C          1.0     0.722075      0.711969      0.894458     Biso  1.000000 C
   C          1.0     0.777933      0.211969      0.605544     Biso  1.000000 C
   N          1.0     0.409434      0.498767      0.745888     Biso  1.000000 N
   N          1.0     0.090574      0.998768      0.754113     Biso  1.000000 N
   N          1.0     0.590574      0.501232      0.254113     Biso  1.000000 N
   N          1.0     0.909434      0.001232      0.245888     Biso  1.000000 N
   N          1.0     0.251687      0.257047      0.233993     Biso  1.000000 N
   N          1.0     0.248322      0.757047      0.266009     Biso  1.000000 N
   N          1.0     0.748321      0.742953      0.766008     Biso  1.000000 N
   N          1.0     0.751687      0.242953      0.733993     Biso  1.000000 N
   C          1.0     0.272587      0.472026      0.926646     Biso  1.000000 C
   C          1.0     0.227422      0.972026      0.573356     Biso  1.000000 C
   C          1.0     0.727422      0.527974      0.073356     Biso  1.000000 C
   C          1.0     0.772586      0.027974      0.426646     Biso  1.000000 C
   N          1.0     0.431766      0.076881      0.162988     Biso  1.000000 N
   N          1.0     0.068243      0.576880      0.337014     Biso  1.000000 N
   N          1.0     0.568242      0.923120      0.837014     Biso  1.000000 N
   N          1.0     0.931765      0.423120      0.662988     Biso  1.000000 N
   N          1.0     0.350122      0.124527      0.266979     Biso  1.000000 N
   N          1.0     0.149887      0.624527      0.233022     Biso  1.000000 N
   N          1.0     0.649887      0.875473      0.733022     Biso  1.000000 N
   N          1.0     0.850121      0.375473      0.766979     Biso  1.000000 N
   N          1.0     0.312137      0.624583      0.766649     Biso  1.000000 N
   N          1.0     0.187872      0.124583      0.733353     Biso  1.000000 N
   N          1.0     0.687872      0.375417      0.233353     Biso  1.000000 N
   N          1.0     0.812136      0.875417      0.266649     Biso  1.000000 N
   N          1.0     0.389898      0.400258      0.845799     Biso  1.000000 N
   N          1.0     0.110111      0.900258      0.654203     Biso  1.000000 N
   N          1.0     0.610110      0.599742      0.154203     Biso  1.000000 N
   N          1.0     0.889898      0.099742      0.345799     Biso  1.000000 N
   N          1.0     0.223586      0.612176      0.881655     Biso  1.000000 N
   N          1.0     0.276422      0.112176      0.618346     Biso  1.000000 N
   N          1.0     0.776422      0.387824      0.118346     Biso  1.000000 N
   N          1.0     0.723587      0.887825      0.381655     Biso  1.000000 N
   O          1.0     0.905653      0.137095      0.011243     Biso  1.000000 O
   O          1.0     0.594356      0.637095      0.488760     Biso  1.000000 O
   O          1.0     0.094356      0.862905      0.988759     Biso  1.000000 O
   O          1.0     0.405653      0.362905      0.511243     Biso  1.000000 O
   N          1.0     0.207408      0.418976      0.041352     Biso  1.000000 N
   N          1.0     0.292600      0.918975      0.458650     Biso  1.000000 N
   N          1.0     0.792600      0.581026      0.958650     Biso  1.000000 N
   N          1.0     0.707409      0.081026      0.541352     Biso  1.000000 N
   H          1.0     0.168499      0.503168      0.108257     Biso  1.000000 H
   H          1.0     0.331510      0.003168      0.391744     Biso  1.000000 H
   H          1.0     0.831509      0.496832      0.891744     Biso  1.000000 H
   H          1.0     0.668498      0.996832      0.608257     Biso  1.000000 H
   H          1.0     0.886695      0.234186      0.059318     Biso  1.000000 H
   H          1.0     0.613314      0.734186      0.440684     Biso  1.000000 H
   H          1.0     0.113314      0.765814      0.940683     Biso  1.000000 H
   H          1.0     0.386695      0.265814      0.559318     Biso  1.000000 H
   H          1.0     0.923498      0.062550      0.089476     Biso  1.000000 H
   H          1.0     0.576510      0.562550      0.410527     Biso  1.000000 H
   H          1.0     0.076510      0.937450      0.910527     Biso  1.000000 H
   H          1.0     0.423499      0.437450      0.589476     Biso  1.000000 H
