#======================================================================

# CRYSTAL DATA

#----------------------------------------------------------------------

data_VESTA_phase_1


_chemical_name_common                  '# Quantum Espresso PWSCF output snapsh'
_cell_length_a                         5.99274
_cell_length_b                         8.87853
_cell_length_c                         9.77618
_cell_angle_alpha                      89.99995
_cell_angle_beta                       102.77478
_cell_angle_gamma                      90.00002
_space_group_name_H-M_alt              'P 1'
_space_group_IT_number                 1

loop_
_space_group_symop_operation_xyz
   'x, y, z'

loop_
   _atom_site_label
   _atom_site_occupancy
   _atom_site_fract_x
   _atom_site_fract_y
   _atom_site_fract_z
   _atom_site_adp_type
   _atom_site_B_iso_or_equiv
   _atom_site_type_symbol
   Cd         1.0     0.550043      0.168358      0.882233     Biso  1.000000 Cd
   Cd         1.0     0.949966      0.668358      0.617769     Biso  1.000000 Cd
   Cd         1.0     0.449966      0.831642      0.117769     Biso  1.000000 Cd
   Cd         1.0     0.050043      0.331642      0.382233     Biso  1.000000 Cd
   N          1.0     0.386649      0.175531      0.058441     Biso  1.000000 N
   N          1.0     0.113359      0.675531      0.441561     Biso  1.000000 N
   N          1.0     0.613358      0.824470      0.941560     Biso  1.000000 N
   N          1.0     0.886650      0.324470      0.558441     Biso  1.000000 N
   C          1.0     0.277402      0.287848      0.105053     Biso  1.000000 C
   C          1.0     0.222606      0.787849      0.394949     Biso  1.000000 C
   C          1.0     0.722607      0.712150      0.894949     Biso  1.000000 C
   C          1.0     0.777401      0.212150      0.605053     Biso  1.000000 C
   N          1.0     0.410679      0.499881      0.745460     Biso  1.000000 N
   N          1.0     0.089329      0.999882      0.754541     Biso  1.000000 N
   N          1.0     0.589329      0.500118      0.254541     Biso  1.000000 N
   N          1.0     0.910679      0.000118      0.245460     Biso  1.000000 N
   N          1.0     0.251547      0.256864      0.233915     Biso  1.000000 N
   N          1.0     0.248461      0.756864      0.266086     Biso  1.000000 N
   N          1.0     0.748461      0.743136      0.766086     Biso  1.000000 N
   N          1.0     0.751547      0.243136      0.733916     Biso  1.000000 N
   C          1.0     0.272529      0.472536      0.926078     Biso  1.000000 C
   C          1.0     0.227479      0.972535      0.573923     Biso  1.000000 C
   C          1.0     0.727480      0.527464      0.073924     Biso  1.000000 C
   C          1.0     0.772529      0.027465      0.426079     Biso  1.000000 C
   N          1.0     0.432728      0.076687      0.163173     Biso  1.000000 N
   N          1.0     0.067279      0.576687      0.336829     Biso  1.000000 N
   N          1.0     0.567279      0.923314      0.836829     Biso  1.000000 N
   N          1.0     0.932728      0.423313      0.663173     Biso  1.000000 N
   N          1.0     0.350781      0.124351      0.267328     Biso  1.000000 N
   N          1.0     0.149226      0.624351      0.232673     Biso  1.000000 N
   N          1.0     0.649227      0.875649      0.732673     Biso  1.000000 N
   N          1.0     0.850781      0.375649      0.767328     Biso  1.000000 N
   N          1.0     0.313180      0.625908      0.766186     Biso  1.000000 N
   N          1.0     0.186828      0.125908      0.733816     Biso  1.000000 N
   N          1.0     0.686829      0.374092      0.233815     Biso  1.000000 N
   N          1.0     0.813180      0.874092      0.266186     Biso  1.000000 N
   N          1.0     0.390478      0.400877      0.845274     Biso  1.000000 N
   N          1.0     0.109531      0.900877      0.654728     Biso  1.000000 N
   N          1.0     0.609530      0.599123      0.154728     Biso  1.000000 N
   N          1.0     0.890478      0.099123      0.345274     Biso  1.000000 N
   N          1.0     0.223755      0.613116      0.881153     Biso  1.000000 N
   N          1.0     0.276253      0.113117      0.618848     Biso  1.000000 N
   N          1.0     0.776253      0.386884      0.118848     Biso  1.000000 N
   N          1.0     0.723755      0.886884      0.381153     Biso  1.000000 N
   O          1.0     0.906736      0.136734      0.011084     Biso  1.000000 O
   O          1.0     0.593273      0.636734      0.488919     Biso  1.000000 O
   O          1.0     0.093273      0.863266      0.988918     Biso  1.000000 O
   O          1.0     0.406736      0.363266      0.511084     Biso  1.000000 O
   N          1.0     0.206495      0.419028      0.040646     Biso  1.000000 N
   N          1.0     0.293513      0.919028      0.459356     Biso  1.000000 N
   N          1.0     0.793513      0.580974      0.959356     Biso  1.000000 N
   N          1.0     0.706495      0.080973      0.540646     Biso  1.000000 N
   H          1.0     0.167744      0.503375      0.107951     Biso  1.000000 H
   H          1.0     0.332263      0.003375      0.392050     Biso  1.000000 H
   H          1.0     0.832263      0.496625      0.892050     Biso  1.000000 H
   H          1.0     0.667744      0.996625      0.607951     Biso  1.000000 H
   H          1.0     0.887254      0.233732      0.059704     Biso  1.000000 H
   H          1.0     0.612755      0.733732      0.440298     Biso  1.000000 H
   H          1.0     0.112755      0.766268      0.940297     Biso  1.000000 H
   H          1.0     0.387254      0.266268      0.559704     Biso  1.000000 H
   H          1.0     0.924944      0.061584      0.089327     Biso  1.000000 H
   H          1.0     0.575064      0.561584      0.410676     Biso  1.000000 H
   H          1.0     0.075063      0.938416      0.910676     Biso  1.000000 H
   H          1.0     0.424945      0.438416      0.589327     Biso  1.000000 H
