#======================================================================

# CRYSTAL DATA

#----------------------------------------------------------------------

data_VESTA_phase_1


_chemical_name_common                  '# Quantum Espresso PWSCF output snapsh'
_cell_length_a                         5.98552
_cell_length_b                         8.85567
_cell_length_c                         9.74461
_cell_angle_alpha                      89.99976
_cell_angle_beta                       102.91251
_cell_angle_gamma                      90.00011
_space_group_name_H-M_alt              'P 1'
_space_group_IT_number                 1

loop_
_space_group_symop_operation_xyz
   'x, y, z'

loop_
   _atom_site_label
   _atom_site_occupancy
   _atom_site_fract_x
   _atom_site_fract_y
   _atom_site_fract_z
   _atom_site_adp_type
   _atom_site_B_iso_or_equiv
   _atom_site_type_symbol
   Cd         1.0     0.550819      0.168754      0.882447     Biso  1.000000 Cd
   Cd         1.0     0.949195      0.668754      0.617555     Biso  1.000000 Cd
   Cd         1.0     0.449195      0.831246      0.117555     Biso  1.000000 Cd
   Cd         1.0     0.050820      0.331246      0.382447     Biso  1.000000 Cd
   N          1.0     0.386673      0.175266      0.058159     Biso  1.000000 N
   N          1.0     0.113342      0.675267      0.441844     Biso  1.000000 N
   N          1.0     0.613340      0.824735      0.941844     Biso  1.000000 N
   N          1.0     0.886672      0.324733      0.558159     Biso  1.000000 N
   C          1.0     0.276959      0.287710      0.104623     Biso  1.000000 C
   C          1.0     0.223054      0.787708      0.395380     Biso  1.000000 C
   C          1.0     0.723058      0.712287      0.895381     Biso  1.000000 C
   C          1.0     0.776961      0.212293      0.604624     Biso  1.000000 C
   N          1.0     0.411739      0.500954      0.745041     Biso  1.000000 N
   N          1.0     0.088275      1.000955      0.754961     Biso  1.000000 N
   N          1.0     0.588275      0.499045      0.254962     Biso  1.000000 N
   N          1.0     0.911739     -0.000955      0.245041     Biso  1.000000 N
   N          1.0     0.251447      0.256718      0.233874     Biso  1.000000 N
   N          1.0     0.248567      0.756718      0.266129     Biso  1.000000 N
   N          1.0     0.748567      0.743283      0.766128     Biso  1.000000 N
   N          1.0     0.751447      0.243282      0.733873     Biso  1.000000 N
   C          1.0     0.272462      0.473047      0.925534     Biso  1.000000 C
   C          1.0     0.227551      0.973047      0.574470     Biso  1.000000 C
   C          1.0     0.727553      0.526953      0.074467     Biso  1.000000 C
   C          1.0     0.772462      0.026955      0.425535     Biso  1.000000 C
   N          1.0     0.433582      0.076457      0.163392     Biso  1.000000 N
   N          1.0     0.066433      0.576458      0.336610     Biso  1.000000 N
   N          1.0     0.566433      0.923543      0.836611     Biso  1.000000 N
   N          1.0     0.933581      0.423542      0.663393     Biso  1.000000 N
   N          1.0     0.351351      0.124161      0.267686     Biso  1.000000 N
   N          1.0     0.148663      0.624161      0.232317     Biso  1.000000 N
   N          1.0     0.648664      0.875839      0.732317     Biso  1.000000 N
   N          1.0     0.851351      0.375839      0.767685     Biso  1.000000 N
   N          1.0     0.314038      0.627194      0.765713     Biso  1.000000 N
   N          1.0     0.185976      0.127194      0.734290     Biso  1.000000 N
   N          1.0     0.685976      0.372806      0.234289     Biso  1.000000 N
   N          1.0     0.814039      0.872806      0.265713     Biso  1.000000 N
   N          1.0     0.390981      0.401476      0.844780     Biso  1.000000 N
   N          1.0     0.109034      0.901476      0.655222     Biso  1.000000 N
   N          1.0     0.609033      0.598525      0.155223     Biso  1.000000 N
   N          1.0     0.890981      0.098524      0.344780     Biso  1.000000 N
   N          1.0     0.223860      0.614047      0.880651     Biso  1.000000 N
   N          1.0     0.276154      0.114046      0.619352     Biso  1.000000 N
   N          1.0     0.776154      0.385953      0.119352     Biso  1.000000 N
   N          1.0     0.723860      0.885953      0.380651     Biso  1.000000 N
   O          1.0     0.907892      0.136400      0.010984     Biso  1.000000 O
   O          1.0     0.592123      0.636400      0.489018     Biso  1.000000 O
   O          1.0     0.092123      0.863600      0.989018     Biso  1.000000 O
   O          1.0     0.407891      0.363600      0.510984     Biso  1.000000 O
   N          1.0     0.205669      0.419102      0.039978     Biso  1.000000 N
   N          1.0     0.294346      0.919103      0.460024     Biso  1.000000 N
   N          1.0     0.794344      0.580900      0.960025     Biso  1.000000 N
   N          1.0     0.705669      0.080896      0.539976     Biso  1.000000 N
   H          1.0     0.167077      0.503631      0.107652     Biso  1.000000 H
   H          1.0     0.332938      0.003630      0.392351     Biso  1.000000 H
   H          1.0     0.832938      0.496369      0.892350     Biso  1.000000 H
   H          1.0     0.667077      0.996370      0.607652     Biso  1.000000 H
   H          1.0     0.887937      0.233321      0.060137     Biso  1.000000 H
   H          1.0     0.612078      0.733320      0.439866     Biso  1.000000 H
   H          1.0     0.112078      0.766679      0.939866     Biso  1.000000 H
   H          1.0     0.387937      0.266680      0.560137     Biso  1.000000 H
   H          1.0     0.926335      0.060637      0.089220     Biso  1.000000 H
   H          1.0     0.573680      0.560637      0.410783     Biso  1.000000 H
   H          1.0     0.073680      0.939363      0.910783     Biso  1.000000 H
   H          1.0     0.426335      0.439363      0.589220     Biso  1.000000 H
