#======================================================================

# CRYSTAL DATA

#----------------------------------------------------------------------

data_VESTA_phase_1


_chemical_name_common                  '# Quantum Espresso PWSCF output snapsh'
_cell_length_a                         5.97812
_cell_length_b                         8.83530
_cell_length_c                         9.71290
_cell_angle_alpha                      90.00099
_cell_angle_beta                       103.04406
_cell_angle_gamma                      90.00050
_space_group_name_H-M_alt              'P 1'
_space_group_IT_number                 1

loop_
_space_group_symop_operation_xyz
   'x, y, z'

loop_
   _atom_site_label
   _atom_site_occupancy
   _atom_site_fract_x
   _atom_site_fract_y
   _atom_site_fract_z
   _atom_site_adp_type
   _atom_site_B_iso_or_equiv
   _atom_site_type_symbol
   Cd         1.0     0.551573      0.169034      0.882515     Biso  1.000000 Cd
   Cd         1.0     0.948470      0.669213      0.617466     Biso  1.000000 Cd
   Cd         1.0     0.448455      0.830967      0.117489     Biso  1.000000 Cd
   Cd         1.0     0.051558      0.330788      0.382538     Biso  1.000000 Cd
   N          1.0     0.386726      0.174995      0.057791     Biso  1.000000 N
   N          1.0     0.113401      0.674954      0.442229     Biso  1.000000 N
   N          1.0     0.613301      0.825006      0.942214     Biso  1.000000 N
   N          1.0     0.886626      0.325046      0.557776     Biso  1.000000 N
   C          1.0     0.276550      0.287504      0.104148     Biso  1.000000 C
   C          1.0     0.223503      0.787489      0.395845     Biso  1.000000 C
   C          1.0     0.723479      0.712494      0.895857     Biso  1.000000 C
   C          1.0     0.776527      0.212516      0.604160     Biso  1.000000 C
   N          1.0     0.412760      0.501962      0.744597     Biso  1.000000 N
   N          1.0     0.087245      0.002022      0.755381     Biso  1.000000 N
   N          1.0     0.587268      0.498039      0.255408     Biso  1.000000 N
   N          1.0     0.912783      0.997979      0.244624     Biso  1.000000 N
   N          1.0     0.251367      0.256481      0.233777     Biso  1.000000 N
   N          1.0     0.248673      0.756450      0.266212     Biso  1.000000 N
   N          1.0     0.748661      0.743520      0.766227     Biso  1.000000 N
   N          1.0     0.751355      0.243549      0.733791     Biso  1.000000 N
   C          1.0     0.272442      0.473483      0.925003     Biso  1.000000 C
   C          1.0     0.227597      0.973516      0.574976     Biso  1.000000 C
   C          1.0     0.727587      0.526518      0.074999     Biso  1.000000 C
   C          1.0     0.772434      0.026483      0.425024     Biso  1.000000 C
   N          1.0     0.434446      0.076227      0.163509     Biso  1.000000 N
   N          1.0     0.065715      0.576151      0.336534     Biso  1.000000 N
   N          1.0     0.565582      0.923774      0.836495     Biso  1.000000 N
   N          1.0     0.934313      0.423849      0.663471     Biso  1.000000 N
   N          1.0     0.351910      0.123908      0.267956     Biso  1.000000 N
   N          1.0     0.148191      0.623845      0.232068     Biso  1.000000 N
   N          1.0     0.648118      0.876093      0.732048     Biso  1.000000 N
   N          1.0     0.851837      0.376156      0.767937     Biso  1.000000 N
   N          1.0     0.314894      0.628386      0.765260     Biso  1.000000 N
   N          1.0     0.185103      0.128446      0.734707     Biso  1.000000 N
   N          1.0     0.685134      0.371615      0.234745     Biso  1.000000 N
   N          1.0     0.814925      0.871555      0.265298     Biso  1.000000 N
   N          1.0     0.391484      0.402019      0.844259     Biso  1.000000 N
   N          1.0     0.108563      0.902069      0.655738     Biso  1.000000 N
   N          1.0     0.608543      0.597982      0.155746     Biso  1.000000 N
   N          1.0     0.891464      0.097931      0.344268     Biso  1.000000 N
   N          1.0     0.224015      0.614882      0.880195     Biso  1.000000 N
   N          1.0     0.276009      0.114922      0.619780     Biso  1.000000 N
   N          1.0     0.776013      0.385119      0.119810     Biso  1.000000 N
   N          1.0     0.724019      0.885080      0.380225     Biso  1.000000 N
   O          1.0     0.909021      0.136108      0.010880     Biso  1.000000 O
   O          1.0     0.591007      0.636099      0.489174     Biso  1.000000 O
   O          1.0     0.091007      0.863893      0.989124     Biso  1.000000 O
   O          1.0     0.409021      0.363902      0.510831     Biso  1.000000 O
   N          1.0     0.204933      0.419124      0.039331     Biso  1.000000 N
   N          1.0     0.295085      0.919128      0.460654     Biso  1.000000 N
   N          1.0     0.795094      0.580878      0.960675     Biso  1.000000 N
   N          1.0     0.704941      0.080871      0.539352     Biso  1.000000 N
   H          1.0     0.166484      0.503768      0.107415     Biso  1.000000 H
   H          1.0     0.333547      0.003767      0.392573     Biso  1.000000 H
   H          1.0     0.833544      0.496232      0.892589     Biso  1.000000 H
   H          1.0     0.666481      0.996234      0.607431     Biso  1.000000 H
   H          1.0     0.888562      0.232920      0.060550     Biso  1.000000 H
   H          1.0     0.611402      0.732904      0.439491     Biso  1.000000 H
   H          1.0     0.111466      0.767081      0.939455     Biso  1.000000 H
   H          1.0     0.388626      0.267097      0.560513     Biso  1.000000 H
   H          1.0     0.927767      0.059758      0.089109     Biso  1.000000 H
   H          1.0     0.572286      0.559754      0.410937     Biso  1.000000 H
   H          1.0     0.072261      0.940243      0.910896     Biso  1.000000 H
   H          1.0     0.427742      0.440246      0.589068     Biso  1.000000 H
