#======================================================================

# CRYSTAL DATA

#----------------------------------------------------------------------

data_VESTA_phase_1


_chemical_name_common                  '# Quantum Espresso PWSCF output snapsh'
_cell_length_a                         5.97289
_cell_length_b                         8.81467
_cell_length_c                         9.68081
_cell_angle_alpha                      90.00098
_cell_angle_beta                       103.19611
_cell_angle_gamma                      90.00061
_space_group_name_H-M_alt              'P 1'
_space_group_IT_number                 1

loop_
_space_group_symop_operation_xyz
   'x, y, z'

loop_
   _atom_site_label
   _atom_site_occupancy
   _atom_site_fract_x
   _atom_site_fract_y
   _atom_site_fract_z
   _atom_site_adp_type
   _atom_site_B_iso_or_equiv
   _atom_site_type_symbol
   Cd         1.0     0.552440      0.169678      0.882619     Biso  1.000000 Cd
   Cd         1.0     0.947587      0.669773      0.617368     Biso  1.000000 Cd
   Cd         1.0     0.447586      0.830323      0.117385     Biso  1.000000 Cd
   Cd         1.0     0.052439      0.330228      0.382637     Biso  1.000000 Cd
   N          1.0     0.386701      0.174617      0.057370     Biso  1.000000 N
   N          1.0     0.113381      0.674598      0.442643     Biso  1.000000 N
   N          1.0     0.613325      0.825384      0.942634     Biso  1.000000 N
   N          1.0     0.886644      0.325402      0.557361     Biso  1.000000 N
   C          1.0     0.276185      0.287215      0.103657     Biso  1.000000 C
   C          1.0     0.223851      0.787213      0.396340     Biso  1.000000 C
   C          1.0     0.723841      0.712786      0.896347     Biso  1.000000 C
   C          1.0     0.776176      0.212790      0.603665     Biso  1.000000 C
   N          1.0     0.413637      0.503132      0.744183     Biso  1.000000 N
   N          1.0     0.086373      0.003163      0.755805     Biso  1.000000 N
   N          1.0     0.586389      0.496869      0.255821     Biso  1.000000 N
   N          1.0     0.913653      0.996838      0.244199     Biso  1.000000 N
   N          1.0     0.251355      0.256111      0.233670     Biso  1.000000 N
   N          1.0     0.248676      0.756097      0.266326     Biso  1.000000 N
   N          1.0     0.748671      0.743890      0.766334     Biso  1.000000 N
   N          1.0     0.751350      0.243904      0.733678     Biso  1.000000 N
   C          1.0     0.272375      0.473963      0.924496     Biso  1.000000 C
   C          1.0     0.227654      0.973987      0.575495     Biso  1.000000 C
   C          1.0     0.727651      0.526038      0.075507     Biso  1.000000 C
   C          1.0     0.772371      0.026015      0.424510     Biso  1.000000 C
   N          1.0     0.435143      0.075807      0.163536     Biso  1.000000 N
   N          1.0     0.064964      0.575765      0.336493     Biso  1.000000 N
   N          1.0     0.564882      0.924194      0.836469     Biso  1.000000 N
   N          1.0     0.935062      0.424236      0.663511     Biso  1.000000 N
   N          1.0     0.352381      0.123453      0.268152     Biso  1.000000 N
   N          1.0     0.147692      0.623416      0.231864     Biso  1.000000 N
   N          1.0     0.647645      0.876548      0.731852     Biso  1.000000 N
   N          1.0     0.852334      0.376585      0.768140     Biso  1.000000 N
   N          1.0     0.315638      0.629717      0.764883     Biso  1.000000 N
   N          1.0     0.184365      0.129751      0.735103     Biso  1.000000 N
   N          1.0     0.684388      0.370284      0.235121     Biso  1.000000 N
   N          1.0     0.815661      0.870250      0.264901     Biso  1.000000 N
   N          1.0     0.391875      0.402673      0.843731     Biso  1.000000 N
   N          1.0     0.108161      0.902701      0.656267     Biso  1.000000 N
   N          1.0     0.608151      0.597328      0.156274     Biso  1.000000 N
   N          1.0     0.891865      0.097300      0.343737     Biso  1.000000 N
   N          1.0     0.224115      0.615781      0.879807     Biso  1.000000 N
   N          1.0     0.275905      0.115807      0.620184     Biso  1.000000 N
   N          1.0     0.775911      0.384220      0.120198     Biso  1.000000 N
   N          1.0     0.724121      0.884194      0.379820     Biso  1.000000 N
   O          1.0     0.910147      0.135774      0.010775     Biso  1.000000 O
   O          1.0     0.589872      0.635770      0.489254     Biso  1.000000 O
   O          1.0     0.089879      0.864227      0.989229     Biso  1.000000 O
   O          1.0     0.410154      0.364231      0.510751     Biso  1.000000 O
   N          1.0     0.204228      0.419084      0.038683     Biso  1.000000 N
   N          1.0     0.295790      0.919094      0.461308     Biso  1.000000 N
   N          1.0     0.795797      0.580917      0.961322     Biso  1.000000 N
   N          1.0     0.704236      0.080906      0.538695     Biso  1.000000 N
   H          1.0     0.165904      0.503808      0.107201     Biso  1.000000 H
   H          1.0     0.334126      0.003815      0.392795     Biso  1.000000 H
   H          1.0     0.834122      0.496193      0.892804     Biso  1.000000 H
   H          1.0     0.665900      0.996186      0.607209     Biso  1.000000 H
   H          1.0     0.889352      0.232472      0.060994     Biso  1.000000 H
   H          1.0     0.610635      0.732462      0.439024     Biso  1.000000 H
   H          1.0     0.110674      0.767529      0.939010     Biso  1.000000 H
   H          1.0     0.389391      0.267539      0.560980     Biso  1.000000 H
   H          1.0     0.929035      0.058789      0.088960     Biso  1.000000 H
   H          1.0     0.571002      0.558784      0.411065     Biso  1.000000 H
   H          1.0     0.070991      0.941212      0.911044     Biso  1.000000 H
   H          1.0     0.429024      0.441217      0.588939     Biso  1.000000 H
