#======================================================================

# CRYSTAL DATA

#----------------------------------------------------------------------

data_VESTA_phase_1


_chemical_name_common                  '# Quantum Espresso PWSCF output snapsh'
_cell_length_a                         5.96108
_cell_length_b                         8.75553
_cell_length_c                         9.58692
_cell_angle_alpha                      90.00100
_cell_angle_beta                       103.65284
_cell_angle_gamma                      90.00191
_space_group_name_H-M_alt              'P 1'
_space_group_IT_number                 1

loop_
_space_group_symop_operation_xyz
   'x, y, z'

loop_
   _atom_site_label
   _atom_site_occupancy
   _atom_site_fract_x
   _atom_site_fract_y
   _atom_site_fract_z
   _atom_site_adp_type
   _atom_site_B_iso_or_equiv
   _atom_site_type_symbol
   Cd         1.0     0.555185      0.171938      0.882975     Biso  1.000000 Cd
   Cd         1.0     0.944834      0.671706      0.617065     Biso  1.000000 Cd
   Cd         1.0     0.444857      0.828063      0.117031     Biso  1.000000 Cd
   Cd         1.0     0.055208      0.328296      0.382941     Biso  1.000000 Cd
   N          1.0     0.386396      0.173343      0.055946     Biso  1.000000 N
   N          1.0     0.113532      0.673427      0.444047     Biso  1.000000 N
   N          1.0     0.613646      0.826658      0.944060     Biso  1.000000 N
   N          1.0     0.886510      0.326574      0.555960     Biso  1.000000 N
   C          1.0     0.275179      0.286224      0.102142     Biso  1.000000 C
   C          1.0     0.224832      0.786287      0.397877     Biso  1.000000 C
   C          1.0     0.724863      0.713777      0.897864     Biso  1.000000 C
   C          1.0     0.775211      0.213715      0.602130     Biso  1.000000 C
   N          1.0     0.415866      0.506760      0.742969     Biso  1.000000 N
   N          1.0     0.084185      0.006683      0.757080     Biso  1.000000 N
   N          1.0     0.584176      0.493241      0.257038     Biso  1.000000 N
   N          1.0     0.915856      0.993318      0.242926     Biso  1.000000 N
   N          1.0     0.251445      0.254823      0.233292     Biso  1.000000 N
   N          1.0     0.248591      0.754877      0.266735     Biso  1.000000 N
   N          1.0     0.748597      0.745178      0.766715     Biso  1.000000 N
   N          1.0     0.751451      0.245124      0.733271     Biso  1.000000 N
   C          1.0     0.272175      0.475388      0.923053     Biso  1.000000 C
   C          1.0     0.227844      0.975377      0.576988     Biso  1.000000 C
   C          1.0     0.727867      0.524613      0.076953     Biso  1.000000 C
   C          1.0     0.772197      0.024624      0.423019     Biso  1.000000 C
   N          1.0     0.436843      0.074318      0.163364     Biso  1.000000 N
   N          1.0     0.063066      0.574422      0.336608     Biso  1.000000 N
   N          1.0     0.563199      0.925683      0.836642     Biso  1.000000 N
   N          1.0     0.936976      0.425580      0.663399     Biso  1.000000 N
   N          1.0     0.353572      0.121821      0.268528     Biso  1.000000 N
   N          1.0     0.146411      0.621898      0.231466     Biso  1.000000 N
   N          1.0     0.646470      0.878180      0.731478     Biso  1.000000 N
   N          1.0     0.853631      0.378103      0.768540     Biso  1.000000 N
   N          1.0     0.317516      0.633752      0.763884     Biso  1.000000 N
   N          1.0     0.182539      0.133687      0.736198     Biso  1.000000 N
   N          1.0     0.682526      0.366250      0.236123     Biso  1.000000 N
   N          1.0     0.817502      0.866314      0.263809     Biso  1.000000 N
   N          1.0     0.392860      0.404722      0.842127     Biso  1.000000 N
   N          1.0     0.107147      0.904667      0.657885     Biso  1.000000 N
   N          1.0     0.607182      0.595279      0.157879     Biso  1.000000 N
   N          1.0     0.892895      0.095335      0.342121     Biso  1.000000 N
   N          1.0     0.224329      0.618439      0.878801     Biso  1.000000 N
   N          1.0     0.275700      0.118419      0.621270     Biso  1.000000 N
   N          1.0     0.775712      0.381562      0.121206     Biso  1.000000 N
   N          1.0     0.724342      0.881582      0.378736     Biso  1.000000 N
   O          1.0     0.913323      0.134714      0.010514     Biso  1.000000 O
   O          1.0     0.586695      0.634729      0.489427     Biso  1.000000 O
   O          1.0     0.086718      0.865287      0.989493     Biso  1.000000 O
   O          1.0     0.413347      0.365272      0.510579     Biso  1.000000 O
   N          1.0     0.202393      0.418913      0.036821     Biso  1.000000 N
   N          1.0     0.297656      0.918948      0.463214     Biso  1.000000 N
   N          1.0     0.797649      0.581089      0.963186     Biso  1.000000 N
   N          1.0     0.702386      0.081053      0.536792     Biso  1.000000 N
   H          1.0     0.164355      0.503768      0.106687     Biso  1.000000 H
   H          1.0     0.335687      0.003813      0.393344     Biso  1.000000 H
   H          1.0     0.835687      0.496233      0.893319     Biso  1.000000 H
   H          1.0     0.664355      0.996188      0.606662     Biso  1.000000 H
   H          1.0     0.891810      0.231037      0.062390     Biso  1.000000 H
   H          1.0     0.608312      0.731050      0.437563     Biso  1.000000 H
   H          1.0     0.108231      0.768965      0.937617     Biso  1.000000 H
   H          1.0     0.391729      0.268951      0.562443     Biso  1.000000 H
   H          1.0     0.932447      0.055804      0.088494     Biso  1.000000 H
   H          1.0     0.567539      0.555803      0.411462     Biso  1.000000 H
   H          1.0     0.067594      0.944197      0.911512     Biso  1.000000 H
   H          1.0     0.432503      0.444199      0.588545     Biso  1.000000 H
