#======================================================================

# CRYSTAL DATA

#----------------------------------------------------------------------

data_VESTA_phase_1


_chemical_name_common                  '# Quantum Espresso PWSCF output snapsh'
_cell_length_a                         5.95559
_cell_length_b                         8.71704
_cell_length_c                         9.52802
_cell_angle_alpha                      89.99967
_cell_angle_beta                       103.95970
_cell_angle_gamma                      90.00105
_space_group_name_H-M_alt              'P 1'
_space_group_IT_number                 1

loop_
_space_group_symop_operation_xyz
   'x, y, z'

loop_
   _atom_site_label
   _atom_site_occupancy
   _atom_site_fract_x
   _atom_site_fract_y
   _atom_site_fract_z
   _atom_site_adp_type
   _atom_site_B_iso_or_equiv
   _atom_site_type_symbol
   Cd         1.0     0.557054      0.173417      0.883300     Biso  1.000000 Cd
   Cd         1.0     0.942983      0.673284      0.616730     Biso  1.000000 Cd
   Cd         1.0     0.443003      0.826584      0.116708     Biso  1.000000 Cd
   Cd         1.0     0.057075      0.326718      0.383278     Biso  1.000000 Cd
   N          1.0     0.386140      0.172511      0.054984     Biso  1.000000 N
   N          1.0     0.113842      0.672559      0.445014     Biso  1.000000 N
   N          1.0     0.613918      0.827490      0.945025     Biso  1.000000 N
   N          1.0     0.886216      0.327443      0.554995     Biso  1.000000 N
   C          1.0     0.274558      0.285614      0.101109     Biso  1.000000 C
   C          1.0     0.225480      0.785646      0.398909     Biso  1.000000 C
   C          1.0     0.725499      0.714388      0.898899     Biso  1.000000 C
   C          1.0     0.774578      0.214354      0.601099     Biso  1.000000 C
   N          1.0     0.417021      0.509095      0.742135     Biso  1.000000 N
   N          1.0     0.083039      0.009042      0.757901     Biso  1.000000 N
   N          1.0     0.583037      0.490907      0.257874     Biso  1.000000 N
   N          1.0     0.917018      0.990959      0.242108     Biso  1.000000 N
   N          1.0     0.251493      0.254020      0.232976     Biso  1.000000 N
   N          1.0     0.248566      0.754055      0.267047     Biso  1.000000 N
   N          1.0     0.748565      0.745981      0.767033     Biso  1.000000 N
   N          1.0     0.751492      0.245947      0.732961     Biso  1.000000 N
   C          1.0     0.272085      0.476340      0.922109     Biso  1.000000 C
   C          1.0     0.227957      0.976323      0.577925     Biso  1.000000 C
   C          1.0     0.727972      0.523662      0.077900     Biso  1.000000 C
   C          1.0     0.772101      0.023678      0.422083     Biso  1.000000 C
   N          1.0     0.437788      0.073321      0.163210     Biso  1.000000 N
   N          1.0     0.062180      0.573386      0.336773     Biso  1.000000 N
   N          1.0     0.562270      0.926681      0.836798     Biso  1.000000 N
   N          1.0     0.937878      0.426616      0.663235     Biso  1.000000 N
   N          1.0     0.354182      0.120737      0.268687     Biso  1.000000 N
   N          1.0     0.145837      0.620790      0.231313     Biso  1.000000 N
   N          1.0     0.645876      0.879264      0.731322     Biso  1.000000 N
   N          1.0     0.854221      0.379212      0.768696     Biso  1.000000 N
   N          1.0     0.318536      0.636365      0.763212     Biso  1.000000 N
   N          1.0     0.181531      0.136317      0.736843     Biso  1.000000 N
   N          1.0     0.681521      0.363637      0.236797     Biso  1.000000 N
   N          1.0     0.818526      0.863684      0.263166     Biso  1.000000 N
   N          1.0     0.393379      0.406046      0.841059     Biso  1.000000 N
   N          1.0     0.106652      0.906007      0.658956     Biso  1.000000 N
   N          1.0     0.606678      0.593955      0.158950     Biso  1.000000 N
   N          1.0     0.893406      0.093994      0.341053     Biso  1.000000 N
   N          1.0     0.224519      0.620195      0.878159     Biso  1.000000 N
   N          1.0     0.275533      0.120173      0.621889     Biso  1.000000 N
   N          1.0     0.775539      0.379806      0.121850     Biso  1.000000 N
   N          1.0     0.724524      0.879829      0.378120     Biso  1.000000 N
   O          1.0     0.915271      0.134049      0.010429     Biso  1.000000 O
   O          1.0     0.584775      0.634056      0.489530     Biso  1.000000 O
   O          1.0     0.084786      0.865953      0.989580     Biso  1.000000 O
   O          1.0     0.415283      0.365946      0.510479     Biso  1.000000 O
   N          1.0     0.201338      0.418858      0.035586     Biso  1.000000 N
   N          1.0     0.298726      0.918872      0.464444     Biso  1.000000 N
   N          1.0     0.798720      0.581142      0.964423     Biso  1.000000 N
   N          1.0     0.701331      0.081131      0.535566     Biso  1.000000 N
   H          1.0     0.163494      0.503798      0.106341     Biso  1.000000 H
   H          1.0     0.336567      0.003818      0.393689     Biso  1.000000 H
   H          1.0     0.836563      0.496204      0.893668     Biso  1.000000 H
   H          1.0     0.663491      0.996184      0.606320     Biso  1.000000 H
   H          1.0     0.893388      0.230098      0.063414     Biso  1.000000 H
   H          1.0     0.606720      0.730105      0.436551     Biso  1.000000 H
   H          1.0     0.106669      0.769903      0.936595     Biso  1.000000 H
   H          1.0     0.393338      0.269897      0.563458     Biso  1.000000 H
   H          1.0     0.934398      0.053850      0.088210     Biso  1.000000 H
   H          1.0     0.565631      0.553845      0.411762     Biso  1.000000 H
   H          1.0     0.065659      0.946152      0.911799     Biso  1.000000 H
   H          1.0     0.434427      0.446157      0.588247     Biso  1.000000 H
