#======================================================================

# CRYSTAL DATA

#----------------------------------------------------------------------

data_VESTA_phase_1


_chemical_name_common                  '# Quantum Espresso PWSCF output snapsh'
_cell_length_a                         5.95602
_cell_length_b                         8.70035
_cell_length_c                         9.49432
_cell_angle_alpha                      89.99794
_cell_angle_beta                       104.15917
_cell_angle_gamma                      89.99875
_space_group_name_H-M_alt              'P 1'
_space_group_IT_number                 1

loop_
_space_group_symop_operation_xyz
   'x, y, z'

loop_
   _atom_site_label
   _atom_site_occupancy
   _atom_site_fract_x
   _atom_site_fract_y
   _atom_site_fract_z
   _atom_site_adp_type
   _atom_site_B_iso_or_equiv
   _atom_site_type_symbol
   Cd         1.0     0.558403      0.174561      0.883413     Biso  1.000000 Cd
   Cd         1.0     0.941656      0.674681      0.616570     Biso  1.000000 Cd
   Cd         1.0     0.441665      0.825441      0.116597     Biso  1.000000 Cd
   Cd         1.0     0.058411      0.325322      0.383440     Biso  1.000000 Cd
   N          1.0     0.385935      0.171896      0.054239     Biso  1.000000 N
   N          1.0     0.114174      0.671847      0.445772     Biso  1.000000 N
   N          1.0     0.614132      0.828106      0.945770     Biso  1.000000 N
   N          1.0     0.885893      0.328156      0.554237     Biso  1.000000 N
   C          1.0     0.274418      0.285044      0.100518     Biso  1.000000 C
   C          1.0     0.225657      0.785006      0.399482     Biso  1.000000 C
   C          1.0     0.725649      0.714957      0.899493     Biso  1.000000 C
   C          1.0     0.774411      0.214997      0.600528     Biso  1.000000 C
   N          1.0     0.417390      0.510561      0.741765     Biso  1.000000 N
   N          1.0     0.082675      0.010594      0.758219     Biso  1.000000 N
   N          1.0     0.582676      0.489442      0.258245     Biso  1.000000 N
   N          1.0     0.917392      0.989408      0.241791     Biso  1.000000 N
   N          1.0     0.251892      0.253218      0.232815     Biso  1.000000 N
   N          1.0     0.248171      0.753190      0.267181     Biso  1.000000 N
   N          1.0     0.748175      0.746784      0.767194     Biso  1.000000 N
   N          1.0     0.751895      0.246813      0.732829     Biso  1.000000 N
   C          1.0     0.271944      0.476752      0.921664     Biso  1.000000 C
   C          1.0     0.228137      0.976738      0.578329     Biso  1.000000 C
   C          1.0     0.728121      0.523251      0.078347     Biso  1.000000 C
   C          1.0     0.771929      0.023265      0.421682     Biso  1.000000 C
   N          1.0     0.438125      0.072466      0.162805     Biso  1.000000 N
   N          1.0     0.061993      0.572414      0.337216     Biso  1.000000 N
   N          1.0     0.561942      0.927535      0.837205     Biso  1.000000 N
   N          1.0     0.938075      0.427589      0.662793     Biso  1.000000 N
   N          1.0     0.354560      0.119701      0.268566     Biso  1.000000 N
   N          1.0     0.145525      0.619667      0.231446     Biso  1.000000 N
   N          1.0     0.645507      0.880301      0.731444     Biso  1.000000 N
   N          1.0     0.854542      0.380336      0.768564     Biso  1.000000 N
   N          1.0     0.318839      0.637848      0.763056     Biso  1.000000 N
   N          1.0     0.181230      0.137870      0.736901     Biso  1.000000 N
   N          1.0     0.681227      0.362154      0.236954     Biso  1.000000 N
   N          1.0     0.818837      0.862132      0.263109     Biso  1.000000 N
   N          1.0     0.393501      0.406853      0.840472     Biso  1.000000 N
   N          1.0     0.106583      0.906871      0.659538     Biso  1.000000 N
   N          1.0     0.606566      0.593149      0.159537     Biso  1.000000 N
   N          1.0     0.893484      0.093131      0.340472     Biso  1.000000 N
   N          1.0     0.224449      0.621029      0.878001     Biso  1.000000 N
   N          1.0     0.275631      0.121021      0.621963     Biso  1.000000 N
   N          1.0     0.775618      0.378973      0.122009     Biso  1.000000 N
   N          1.0     0.724436      0.878982      0.378047     Biso  1.000000 N
   O          1.0     0.916385      0.133588      0.010586     Biso  1.000000 O
   O          1.0     0.583686      0.633580      0.489454     Biso  1.000000 O
   O          1.0     0.083681      0.866414      0.989425     Biso  1.000000 O
   O          1.0     0.416380      0.366422      0.510556     Biso  1.000000 O
   N          1.0     0.200841      0.418573      0.034964     Biso  1.000000 N
   N          1.0     0.299224      0.918539      0.465030     Biso  1.000000 N
   N          1.0     0.799226      0.581430      0.965045     Biso  1.000000 N
   N          1.0     0.700843      0.081463      0.534980     Biso  1.000000 N
   H          1.0     0.163031      0.503364      0.106314     Biso  1.000000 H
   H          1.0     0.337035      0.003332      0.393684     Biso  1.000000 H
   H          1.0     0.837036      0.496638      0.893697     Biso  1.000000 H
   H          1.0     0.663032      0.996671      0.606326     Biso  1.000000 H
   H          1.0     0.894566      0.229496      0.064127     Biso  1.000000 H
   H          1.0     0.605444      0.729495      0.435910     Biso  1.000000 H
   H          1.0     0.105500      0.770506      0.935883     Biso  1.000000 H
   H          1.0     0.394622      0.270507      0.564100     Biso  1.000000 H
   H          1.0     0.935389      0.052652      0.088203     Biso  1.000000 H
   H          1.0     0.564704      0.552657      0.411827     Biso  1.000000 H
   H          1.0     0.064677      0.947351      0.911807     Biso  1.000000 H
   H          1.0     0.435362      0.447345      0.588183     Biso  1.000000 H
