#======================================================================

# CRYSTAL DATA

#----------------------------------------------------------------------

data_VESTA_phase_1


_chemical_name_common                  '# Quantum Espresso PWSCF output snapsh'
_cell_length_a                         5.95557
_cell_length_b                         8.68277
_cell_length_c                         9.46376
_cell_angle_alpha                      89.99698
_cell_angle_beta                       104.33732
_cell_angle_gamma                      89.99744
_space_group_name_H-M_alt              'P 1'
_space_group_IT_number                 1

loop_
_space_group_symop_operation_xyz
   'x, y, z'

loop_
   _atom_site_label
   _atom_site_occupancy
   _atom_site_fract_x
   _atom_site_fract_y
   _atom_site_fract_z
   _atom_site_adp_type
   _atom_site_B_iso_or_equiv
   _atom_site_type_symbol
   Cd         1.0     0.559556      0.175571      0.883615     Biso  1.000000 Cd
   Cd         1.0     0.940503      0.675803      0.616344     Biso  1.000000 Cd
   Cd         1.0     0.440508      0.824431      0.116394     Biso  1.000000 Cd
   Cd         1.0     0.059561      0.324199      0.383666     Biso  1.000000 Cd
   N          1.0     0.385693      0.171355      0.053618     Biso  1.000000 N
   N          1.0     0.114460      0.671262      0.446400     Biso  1.000000 N
   N          1.0     0.614371      0.828647      0.946391     Biso  1.000000 N
   N          1.0     0.885604      0.328740      0.553609     Biso  1.000000 N
   C          1.0     0.274191      0.284604      0.099966     Biso  1.000000 C
   C          1.0     0.225890      0.784532      0.400024     Biso  1.000000 C
   C          1.0     0.725872      0.715399      0.900043     Biso  1.000000 C
   C          1.0     0.774173      0.215469      0.599985     Biso  1.000000 C
   N          1.0     0.417759      0.511873      0.741383     Biso  1.000000 N
   N          1.0     0.082308      0.011942      0.758582     Biso  1.000000 N
   N          1.0     0.582305      0.488129      0.258626     Biso  1.000000 N
   N          1.0     0.917755      0.988059      0.241428     Biso  1.000000 N
   N          1.0     0.252103      0.252624      0.232657     Biso  1.000000 N
   N          1.0     0.247953      0.752568      0.267328     Biso  1.000000 N
   N          1.0     0.747962      0.747377      0.767352     Biso  1.000000 N
   N          1.0     0.752111      0.247435      0.732681     Biso  1.000000 N
   C          1.0     0.271844      0.477190      0.921220     Biso  1.000000 C
   C          1.0     0.228248      0.977175      0.578753     Biso  1.000000 C
   C          1.0     0.728219      0.522812      0.078789     Biso  1.000000 C
   C          1.0     0.771815      0.022827      0.421256     Biso  1.000000 C
   N          1.0     0.438395      0.071747      0.162540     Biso  1.000000 N
   N          1.0     0.061773      0.571644      0.337496     Biso  1.000000 N
   N          1.0     0.561669      0.928254      0.837469     Biso  1.000000 N
   N          1.0     0.938291      0.428358      0.662513     Biso  1.000000 N
   N          1.0     0.354810      0.118888      0.268518     Biso  1.000000 N
   N          1.0     0.145291      0.618816      0.231498     Biso  1.000000 N
   N          1.0     0.645254      0.881114      0.731491     Biso  1.000000 N
   N          1.0     0.854773      0.381186      0.768512     Biso  1.000000 N
   N          1.0     0.319174      0.639236      0.762842     Biso  1.000000 N
   N          1.0     0.180891      0.139285      0.737075     Biso  1.000000 N
   N          1.0     0.680890      0.360766      0.237168     Biso  1.000000 N
   N          1.0     0.819172      0.860716      0.262934     Biso  1.000000 N
   N          1.0     0.393623      0.407586      0.839912     Biso  1.000000 N
   N          1.0     0.106480      0.907627      0.660098     Biso  1.000000 N
   N          1.0     0.606441      0.592416      0.160097     Biso  1.000000 N
   N          1.0     0.893584      0.092375      0.339911     Biso  1.000000 N
   N          1.0     0.224462      0.621878      0.877796     Biso  1.000000 N
   N          1.0     0.275621      0.121873      0.622131     Biso  1.000000 N
   N          1.0     0.775602      0.378124      0.122213     Biso  1.000000 N
   N          1.0     0.724442      0.878129      0.377878     Biso  1.000000 N
   O          1.0     0.917370      0.133197      0.010670     Biso  1.000000 O
   O          1.0     0.582710      0.633182      0.489399     Biso  1.000000 O
   O          1.0     0.082694      0.866804      0.989339     Biso  1.000000 O
   O          1.0     0.417353      0.366820      0.510610     Biso  1.000000 O
   N          1.0     0.200370      0.418419      0.034356     Biso  1.000000 N
   N          1.0     0.299686      0.918363      0.465622     Biso  1.000000 N
   N          1.0     0.799694      0.581582      0.965653     Biso  1.000000 N
   N          1.0     0.700378      0.081640      0.534387     Biso  1.000000 N
   H          1.0     0.162623      0.503156      0.106220     Biso  1.000000 H
   H          1.0     0.337432      0.003098      0.393762     Biso  1.000000 H
   H          1.0     0.837440      0.496846      0.893790     Biso  1.000000 H
   H          1.0     0.662632      0.996904      0.606247     Biso  1.000000 H
   H          1.0     0.895578      0.228962      0.064772     Biso  1.000000 H
   H          1.0     0.604386      0.728957      0.435290     Biso  1.000000 H
   H          1.0     0.104486      0.771039      0.935237     Biso  1.000000 H
   H          1.0     0.395678      0.271044      0.564720     Biso  1.000000 H
   H          1.0     0.936248      0.051575      0.088141     Biso  1.000000 H
   H          1.0     0.563867      0.551584      0.411910     Biso  1.000000 H
   H          1.0     0.063816      0.948426      0.911869     Biso  1.000000 H
   H          1.0     0.436197      0.448417      0.588100     Biso  1.000000 H
