#======================================================================

# CRYSTAL DATA

#----------------------------------------------------------------------

data_VESTA_phase_1


_chemical_name_common                  '# Quantum Espresso PWSCF output snapsh'
_cell_length_a                         5.95547
_cell_length_b                         8.66572
_cell_length_c                         9.43349
_cell_angle_alpha                      89.99738
_cell_angle_beta                       104.51801
_cell_angle_gamma                      89.99783
_space_group_name_H-M_alt              'P 1'
_space_group_IT_number                 1

loop_
_space_group_symop_operation_xyz
   'x, y, z'

loop_
   _atom_site_label
   _atom_site_occupancy
   _atom_site_fract_x
   _atom_site_fract_y
   _atom_site_fract_z
   _atom_site_adp_type
   _atom_site_B_iso_or_equiv
   _atom_site_type_symbol
   Cd         1.0     0.560720      0.176719      0.883866     Biso  1.000000 Cd
   Cd         1.0     0.939333      0.676880      0.616107     Biso  1.000000 Cd
   Cd         1.0     0.439335      0.823284      0.116142     Biso  1.000000 Cd
   Cd         1.0     0.060721      0.323122      0.383901     Biso  1.000000 Cd
   N          1.0     0.385364      0.170755      0.052975     Biso  1.000000 N
   N          1.0     0.114748      0.670685      0.447039     Biso  1.000000 N
   N          1.0     0.614690      0.829247      0.947033     Biso  1.000000 N
   N          1.0     0.885306      0.329317      0.552969     Biso  1.000000 N
   C          1.0     0.273966      0.284119      0.099427     Biso  1.000000 C
   C          1.0     0.226102      0.784063      0.400568     Biso  1.000000 C
   C          1.0     0.726087      0.715884      0.900580     Biso  1.000000 C
   C          1.0     0.773953      0.215940      0.599440     Biso  1.000000 C
   N          1.0     0.418069      0.513222      0.741034     Biso  1.000000 N
   N          1.0     0.081994      0.013271      0.758943     Biso  1.000000 N
   N          1.0     0.581985      0.486781      0.258974     Biso  1.000000 N
   N          1.0     0.918060      0.986731      0.241065     Biso  1.000000 N
   N          1.0     0.252347      0.251992      0.232519     Biso  1.000000 N
   N          1.0     0.247698      0.751949      0.267472     Biso  1.000000 N
   N          1.0     0.747707      0.748010      0.767489     Biso  1.000000 N
   N          1.0     0.752356      0.248053      0.732535     Biso  1.000000 N
   C          1.0     0.271720      0.477611      0.920807     Biso  1.000000 C
   C          1.0     0.228356      0.977597      0.579175     Biso  1.000000 C
   C          1.0     0.728333      0.522390      0.079201     Biso  1.000000 C
   C          1.0     0.771699      0.022405      0.420832     Biso  1.000000 C
   N          1.0     0.438545      0.070947      0.162233     Biso  1.000000 N
   N          1.0     0.061574      0.570874      0.337791     Biso  1.000000 N
   N          1.0     0.561510      0.929056      0.837775     Biso  1.000000 N
   N          1.0     0.938480      0.429128      0.662217     Biso  1.000000 N
   N          1.0     0.355011      0.118008      0.268449     Biso  1.000000 N
   N          1.0     0.145062      0.617959      0.231563     Biso  1.000000 N
   N          1.0     0.645043      0.881995      0.731559     Biso  1.000000 N
   N          1.0     0.854992      0.382043      0.768445     Biso  1.000000 N
   N          1.0     0.319473      0.640642      0.762698     Biso  1.000000 N
   N          1.0     0.180588      0.140675      0.737241     Biso  1.000000 N
   N          1.0     0.680581      0.359360      0.237310     Biso  1.000000 N
   N          1.0     0.819466      0.859327      0.262767     Biso  1.000000 N
   N          1.0     0.393684      0.408337      0.839352     Biso  1.000000 N
   N          1.0     0.106400      0.908364      0.660658     Biso  1.000000 N
   N          1.0     0.606371      0.591665      0.160655     Biso  1.000000 N
   N          1.0     0.893653      0.091637      0.339350     Biso  1.000000 N
   N          1.0     0.224464      0.622713      0.877656     Biso  1.000000 N
   N          1.0     0.275607      0.122705      0.622289     Biso  1.000000 N
   N          1.0     0.775590      0.377289      0.122352     Biso  1.000000 N
   N          1.0     0.724447      0.877297      0.377719     Biso  1.000000 N
   O          1.0     0.918314      0.132795      0.010764     Biso  1.000000 O
   O          1.0     0.581757      0.632783      0.489287     Biso  1.000000 O
   O          1.0     0.081740      0.867207      0.989244     Biso  1.000000 O
   O          1.0     0.418297      0.367219      0.510721     Biso  1.000000 O
   N          1.0     0.199921      0.418229      0.033773     Biso  1.000000 N
   N          1.0     0.300128      0.918182      0.466214     Biso  1.000000 N
   N          1.0     0.800133      0.581772      0.966235     Biso  1.000000 N
   N          1.0     0.699926      0.081820      0.533794     Biso  1.000000 N
   H          1.0     0.162237      0.502897      0.106156     Biso  1.000000 H
   H          1.0     0.337809      0.002849      0.393832     Biso  1.000000 H
   H          1.0     0.837817      0.497105      0.893852     Biso  1.000000 H
   H          1.0     0.662245      0.997153      0.606176     Biso  1.000000 H
   H          1.0     0.896653      0.228422      0.065423     Biso  1.000000 H
   H          1.0     0.603332      0.728419      0.434624     Biso  1.000000 H
   H          1.0     0.103401      0.771580      0.934585     Biso  1.000000 H
   H          1.0     0.396722      0.271583      0.565384     Biso  1.000000 H
   H          1.0     0.937026      0.050501      0.088087     Biso  1.000000 H
   H          1.0     0.563067      0.550508      0.411949     Biso  1.000000 H
   H          1.0     0.063029      0.949501      0.911921     Biso  1.000000 H
   H          1.0     0.436987      0.449494      0.588059     Biso  1.000000 H
