#======================================================================

# CRYSTAL DATA

#----------------------------------------------------------------------

data_VESTA_phase_1


_chemical_name_common                  '# Quantum Espresso PWSCF output snapsh'
_cell_length_a                         6.38285
_cell_length_b                         9.84441
_cell_length_c                         10.59176
_cell_angle_alpha                      90.00002
_cell_angle_beta                       98.30097
_cell_angle_gamma                      89.99999
_space_group_name_H-M_alt              'P 1'
_space_group_IT_number                 1

loop_
_space_group_symop_operation_xyz
   'x, y, z'

loop_
   _atom_site_label
   _atom_site_occupancy
   _atom_site_fract_x
   _atom_site_fract_y
   _atom_site_fract_z
   _atom_site_adp_type
   _atom_site_B_iso_or_equiv
   _atom_site_type_symbol
   Cd         1.0     0.536768      0.162975      0.876054     Biso  1.000000 Cd
   Cd         1.0     0.963231      0.662975      0.623948     Biso  1.000000 Cd
   Cd         1.0     0.463231      0.837025      0.123947     Biso  1.000000 Cd
   Cd         1.0     0.036768      0.337025      0.376054     Biso  1.000000 Cd
   N          1.0     0.370263      0.169566      0.058673     Biso  1.000000 N
   N          1.0     0.129736      0.669566      0.441329     Biso  1.000000 N
   N          1.0     0.629736      0.830433      0.941329     Biso  1.000000 N
   N          1.0     0.870263      0.330434      0.558673     Biso  1.000000 N
   C          1.0     0.297585      0.277869      0.116746     Biso  1.000000 C
   C          1.0     0.202413      0.777868      0.383256     Biso  1.000000 C
   C          1.0     0.702413      0.722132      0.883256     Biso  1.000000 C
   C          1.0     0.797585      0.222132      0.616747     Biso  1.000000 C
   N          1.0     0.327158      0.449369      0.750546     Biso  1.000000 N
   N          1.0     0.172841      0.949369      0.749456     Biso  1.000000 N
   N          1.0     0.672841      0.550631      0.249456     Biso  1.000000 N
   N          1.0     0.827158      0.050631      0.250546     Biso  1.000000 N
   N          1.0     0.245957      0.242682      0.231345     Biso  1.000000 N
   N          1.0     0.254042      0.742682      0.268657     Biso  1.000000 N
   N          1.0     0.754042      0.757318      0.768657     Biso  1.000000 N
   N          1.0     0.745957      0.257318      0.731345     Biso  1.000000 N
   C          1.0     0.279785      0.444663      0.946795     Biso  1.000000 C
   C          1.0     0.220214      0.944663      0.553208     Biso  1.000000 C
   C          1.0     0.720214      0.555337      0.053208     Biso  1.000000 C
   C          1.0     0.779785      0.055337      0.446794     Biso  1.000000 C
   N          1.0     0.361662      0.066215      0.141362     Biso  1.000000 N
   N          1.0     0.138337      0.566215      0.358640     Biso  1.000000 N
   N          1.0     0.638337      0.933785      0.858640     Biso  1.000000 N
   N          1.0     0.861662      0.433785      0.641362     Biso  1.000000 N
   N          1.0     0.290529      0.109162      0.243809     Biso  1.000000 N
   N          1.0     0.209470      0.609162      0.256193     Biso  1.000000 N
   N          1.0     0.709470      0.890838      0.756193     Biso  1.000000 N
   N          1.0     0.790529      0.390838      0.743809     Biso  1.000000 N
   N          1.0     0.239106      0.564205      0.777277     Biso  1.000000 N
   N          1.0     0.260893      0.064205      0.722725     Biso  1.000000 N
   N          1.0     0.760893      0.435795      0.222725     Biso  1.000000 N
   N          1.0     0.739106      0.935795      0.277277     Biso  1.000000 N
   N          1.0     0.357446      0.371501      0.856498     Biso  1.000000 N
   N          1.0     0.142553      0.871501      0.643504     Biso  1.000000 N
   N          1.0     0.642552      0.628499      0.143504     Biso  1.000000 N
   N          1.0     0.857446      0.128499      0.356498     Biso  1.000000 N
   N          1.0     0.205611      0.565109      0.900381     Biso  1.000000 N
   N          1.0     0.294387      0.065109      0.599621     Biso  1.000000 N
   N          1.0     0.794387      0.434891      0.099621     Biso  1.000000 N
   N          1.0     0.705612      0.934891      0.400381     Biso  1.000000 N
   O          1.0     0.853792      0.177900      0.016779     Biso  1.000000 O
   O          1.0     0.646207      0.677899      0.483223     Biso  1.000000 O
   O          1.0     0.146207      0.822100      0.983223     Biso  1.000000 O
   O          1.0     0.353792      0.322100      0.516779     Biso  1.000000 O
   N          1.0     0.276042      0.407280      0.070847     Biso  1.000000 N
   N          1.0     0.223957      0.907281      0.429154     Biso  1.000000 N
   N          1.0     0.723957      0.592719      0.929155     Biso  1.000000 N
   N          1.0     0.776042      0.092720      0.570847     Biso  1.000000 N
   H          1.0     0.239779      0.482861      0.133351     Biso  1.000000 H
   H          1.0     0.260220      0.982861      0.366651     Biso  1.000000 H
   H          1.0     0.760219      0.517139      0.866651     Biso  1.000000 H
   H          1.0     0.739779      0.017138      0.633351     Biso  1.000000 H
   H          1.0     0.850217      0.274542      0.046066     Biso  1.000000 H
   H          1.0     0.649781      0.774542      0.453936     Biso  1.000000 H
   H          1.0     0.149781      0.725458      0.953936     Biso  1.000000 H
   H          1.0     0.350217      0.225458      0.546066     Biso  1.000000 H
   H          1.0     0.849126      0.123316      0.095602     Biso  1.000000 H
   H          1.0     0.650873      0.623316      0.404399     Biso  1.000000 H
   H          1.0     0.150873      0.876684      0.904399     Biso  1.000000 H
   H          1.0     0.349126      0.376684      0.595602     Biso  1.000000 H
