#======================================================================

# CRYSTAL DATA

#----------------------------------------------------------------------

data_VESTA_phase_1


_chemical_name_common                  '# Quantum Espresso PWSCF output snapsh'
_cell_length_a                         6.20157
_cell_length_b                         9.66916
_cell_length_c                         10.49899
_cell_angle_alpha                      90
_cell_angle_beta                       99.38165
_cell_angle_gamma                      90
_space_group_name_H-M_alt              'P 1'
_space_group_IT_number                 1

loop_
_space_group_symop_operation_xyz
   'x, y, z'

loop_
   _atom_site_label
   _atom_site_occupancy
   _atom_site_fract_x
   _atom_site_fract_y
   _atom_site_fract_z
   _atom_site_adp_type
   _atom_site_B_iso_or_equiv
   _atom_site_type_symbol
   Cd         1.0     0.539185      0.163335      0.878551     Biso  1.000000 Cd
   Cd         1.0     0.960814      0.663335      0.621448     Biso  1.000000 Cd
   Cd         1.0     0.460813      0.836665      0.121448     Biso  1.000000 Cd
   Cd         1.0     0.039184      0.336665      0.378552     Biso  1.000000 Cd
   N          1.0     0.375893      0.172902      0.060422     Biso  1.000000 N
   N          1.0     0.124104      0.672902      0.439579     Biso  1.000000 N
   N          1.0     0.624105      0.827098      0.939578     Biso  1.000000 N
   N          1.0     0.875894      0.327098      0.560421     Biso  1.000000 N
   C          1.0     0.298200      0.282582      0.117193     Biso  1.000000 C
   C          1.0     0.201799      0.782583      0.382808     Biso  1.000000 C
   C          1.0     0.701798      0.717418      0.882806     Biso  1.000000 C
   C          1.0     0.798199      0.217417      0.617192     Biso  1.000000 C
   N          1.0     0.347318      0.459665      0.751430     Biso  1.000000 N
   N          1.0     0.152679      0.959665      0.748569     Biso  1.000000 N
   N          1.0     0.652680      0.540335      0.248570     Biso  1.000000 N
   N          1.0     0.847318      0.040335      0.251431     Biso  1.000000 N
   N          1.0     0.255073      0.248339      0.234778     Biso  1.000000 N
   N          1.0     0.244923      0.748339      0.265223     Biso  1.000000 N
   N          1.0     0.744923      0.751661      0.765222     Biso  1.000000 N
   N          1.0     0.755074      0.251661      0.734777     Biso  1.000000 N
   C          1.0     0.279079      0.451176      0.944654     Biso  1.000000 C
   C          1.0     0.220920      0.951176      0.555345     Biso  1.000000 C
   C          1.0     0.720918      0.548824      0.055346     Biso  1.000000 C
   C          1.0     0.779078      0.048824      0.444656     Biso  1.000000 C
   N          1.0     0.378689      0.069691      0.146614     Biso  1.000000 N
   N          1.0     0.121309      0.569691      0.353386     Biso  1.000000 N
   N          1.0     0.621309      0.930309      0.853385     Biso  1.000000 N
   N          1.0     0.878689      0.430309      0.646613     Biso  1.000000 N
   N          1.0     0.309502      0.114025      0.250078     Biso  1.000000 N
   N          1.0     0.190496      0.614025      0.249923     Biso  1.000000 N
   N          1.0     0.690496      0.885975      0.749923     Biso  1.000000 N
   N          1.0     0.809502      0.385975      0.750077     Biso  1.000000 N
   N          1.0     0.259304      0.577550      0.776891     Biso  1.000000 N
   N          1.0     0.240693      0.077550      0.723108     Biso  1.000000 N
   N          1.0     0.740693      0.422450      0.223109     Biso  1.000000 N
   N          1.0     0.759304      0.922449      0.276892     Biso  1.000000 N
   N          1.0     0.364218      0.377315      0.856196     Biso  1.000000 N
   N          1.0     0.135779      0.877314      0.643804     Biso  1.000000 N
   N          1.0     0.635779      0.622686      0.143805     Biso  1.000000 N
   N          1.0     0.864219      0.122686      0.356196     Biso  1.000000 N
   N          1.0     0.213298      0.576275      0.898290     Biso  1.000000 N
   N          1.0     0.286699      0.076275      0.601710     Biso  1.000000 N
   N          1.0     0.786700      0.423725      0.101711     Biso  1.000000 N
   N          1.0     0.713298      0.923725      0.398290     Biso  1.000000 N
   O          1.0     0.870822      0.166878      0.018420     Biso  1.000000 O
   O          1.0     0.629176      0.666878      0.481581     Biso  1.000000 O
   O          1.0     0.129176      0.833122      0.981580     Biso  1.000000 O
   O          1.0     0.370822      0.333122      0.518419     Biso  1.000000 O
   N          1.0     0.262596      0.411871      0.067450     Biso  1.000000 N
   N          1.0     0.237401      0.911870      0.432551     Biso  1.000000 N
   N          1.0     0.737401      0.588129      0.932550     Biso  1.000000 N
   N          1.0     0.762597      0.088130      0.567448     Biso  1.000000 N
   H          1.0     0.223974      0.489240      0.129718     Biso  1.000000 H
   H          1.0     0.276024      0.989241      0.370283     Biso  1.000000 H
   H          1.0     0.776024      0.510759      0.870282     Biso  1.000000 H
   H          1.0     0.723974      0.010759      0.629717     Biso  1.000000 H
   H          1.0     0.862287      0.264245      0.049924     Biso  1.000000 H
   H          1.0     0.637710      0.764245      0.450077     Biso  1.000000 H
   H          1.0     0.137710      0.735755      0.950076     Biso  1.000000 H
   H          1.0     0.362287      0.235755      0.549923     Biso  1.000000 H
   H          1.0     0.868712      0.109556      0.097309     Biso  1.000000 H
   H          1.0     0.631286      0.609556      0.402691     Biso  1.000000 H
   H          1.0     0.131286      0.890444      0.902690     Biso  1.000000 H
   H          1.0     0.368712      0.390444      0.597309     Biso  1.000000 H
