#======================================================================

# CRYSTAL DATA

#----------------------------------------------------------------------

data_VESTA_phase_1


_chemical_name_common                  '# Quantum Espresso PWSCF output snapsh'
_cell_length_a                         6.17442
_cell_length_b                         9.62540
_cell_length_c                         10.47432
_cell_angle_alpha                      90
_cell_angle_beta                       99.57771
_cell_angle_gamma                      90
_space_group_name_H-M_alt              'P 1'
_space_group_IT_number                 1

loop_
_space_group_symop_operation_xyz
   'x, y, z'

loop_
   _atom_site_label
   _atom_site_occupancy
   _atom_site_fract_x
   _atom_site_fract_y
   _atom_site_fract_z
   _atom_site_adp_type
   _atom_site_B_iso_or_equiv
   _atom_site_type_symbol
   Cd         1.0     0.539640      0.163448      0.878954     Biso  1.000000 Cd
   Cd         1.0     0.960362      0.663448      0.621043     Biso  1.000000 Cd
   Cd         1.0     0.460360      0.836552      0.121044     Biso  1.000000 Cd
   Cd         1.0     0.039638      0.336552      0.378956     Biso  1.000000 Cd
   N          1.0     0.377128      0.173514      0.060723     Biso  1.000000 N
   N          1.0     0.122869      0.673514      0.439277     Biso  1.000000 N
   N          1.0     0.622871      0.826486      0.939276     Biso  1.000000 N
   N          1.0     0.877130      0.326486      0.560722     Biso  1.000000 N
   C          1.0     0.297760      0.283481      0.116986     Biso  1.000000 C
   C          1.0     0.202240      0.783482      0.383014     Biso  1.000000 C
   C          1.0     0.702240      0.716519      0.883012     Biso  1.000000 C
   C          1.0     0.797760      0.216518      0.616985     Biso  1.000000 C
   N          1.0     0.351726      0.461964      0.751393     Biso  1.000000 N
   N          1.0     0.148274      0.961964      0.748604     Biso  1.000000 N
   N          1.0     0.648274      0.538036      0.248606     Biso  1.000000 N
   N          1.0     0.851725      0.038036      0.251395     Biso  1.000000 N
   N          1.0     0.256236      0.249505      0.235204     Biso  1.000000 N
   N          1.0     0.243761      0.749505      0.264796     Biso  1.000000 N
   N          1.0     0.743762      0.750495      0.764795     Biso  1.000000 N
   N          1.0     0.756238      0.250495      0.735203     Biso  1.000000 N
   C          1.0     0.278739      0.452590      0.943862     Biso  1.000000 C
   C          1.0     0.221263      0.952590      0.556136     Biso  1.000000 C
   C          1.0     0.721260      0.547410      0.056137     Biso  1.000000 C
   C          1.0     0.778737      0.047410      0.443864     Biso  1.000000 C
   N          1.0     0.382592      0.070411      0.147825     Biso  1.000000 N
   N          1.0     0.117407      0.570411      0.352175     Biso  1.000000 N
   N          1.0     0.617408      0.929589      0.852173     Biso  1.000000 N
   N          1.0     0.882593      0.429589      0.647824     Biso  1.000000 N
   N          1.0     0.313293      0.115082      0.251373     Biso  1.000000 N
   N          1.0     0.186706      0.615082      0.248627     Biso  1.000000 N
   N          1.0     0.686707      0.884918      0.748627     Biso  1.000000 N
   N          1.0     0.813294      0.384918      0.751372     Biso  1.000000 N
   N          1.0     0.263554      0.580486      0.776585     Biso  1.000000 N
   N          1.0     0.236446      0.080486      0.723413     Biso  1.000000 N
   N          1.0     0.736445      0.419514      0.223414     Biso  1.000000 N
   N          1.0     0.763553      0.919513      0.276586     Biso  1.000000 N
   N          1.0     0.365702      0.378627      0.855847     Biso  1.000000 N
   N          1.0     0.134297      0.878626      0.644152     Biso  1.000000 N
   N          1.0     0.634296      0.621374      0.144154     Biso  1.000000 N
   N          1.0     0.865702      0.121374      0.355847     Biso  1.000000 N
   N          1.0     0.214739      0.578709      0.897581     Biso  1.000000 N
   N          1.0     0.285260      0.078709      0.602417     Biso  1.000000 N
   N          1.0     0.785260      0.421291      0.102419     Biso  1.000000 N
   N          1.0     0.714738      0.921291      0.397582     Biso  1.000000 N
   O          1.0     0.873872      0.164482      0.018375     Biso  1.000000 O
   O          1.0     0.626127      0.664482      0.481626     Biso  1.000000 O
   O          1.0     0.126127      0.835518      0.981624     Biso  1.000000 O
   O          1.0     0.373873      0.335518      0.518374     Biso  1.000000 O
   N          1.0     0.259075      0.412733      0.066284     Biso  1.000000 N
   N          1.0     0.240923      0.912731      0.433717     Biso  1.000000 N
   N          1.0     0.740924      0.587268      0.933715     Biso  1.000000 N
   N          1.0     0.759077      0.087269      0.566282     Biso  1.000000 N
   H          1.0     0.220097      0.490537      0.128557     Biso  1.000000 H
   H          1.0     0.279902      0.990538      0.371443     Biso  1.000000 H
   H          1.0     0.779903      0.509462      0.871442     Biso  1.000000 H
   H          1.0     0.720097      0.009462      0.628556     Biso  1.000000 H
   H          1.0     0.864483      0.261972      0.050586     Biso  1.000000 H
   H          1.0     0.635515      0.761972      0.449414     Biso  1.000000 H
   H          1.0     0.135516      0.738028      0.949413     Biso  1.000000 H
   H          1.0     0.364484      0.238028      0.550585     Biso  1.000000 H
   H          1.0     0.872690      0.106398      0.097272     Biso  1.000000 H
   H          1.0     0.627309      0.606398      0.402728     Biso  1.000000 H
   H          1.0     0.127309      0.893602      0.902726     Biso  1.000000 H
   H          1.0     0.372691      0.393602      0.597272     Biso  1.000000 H
