#======================================================================

# CRYSTAL DATA

#----------------------------------------------------------------------

data_VESTA_phase_1


_chemical_name_common                  '# Quantum Espresso PWSCF output snapsh'
_cell_length_a                         6.27460
_cell_length_b                         9.75733
_cell_length_c                         10.54562
_cell_angle_alpha                      90
_cell_angle_beta                       98.92072
_cell_angle_gamma                      90
_space_group_name_H-M_alt              'P 1'
_space_group_IT_number                 1

loop_
_space_group_symop_operation_xyz
   'x, y, z'

loop_
   _atom_site_label
   _atom_site_occupancy
   _atom_site_fract_x
   _atom_site_fract_y
   _atom_site_fract_z
   _atom_site_adp_type
   _atom_site_B_iso_or_equiv
   _atom_site_type_symbol
   Cd         1.0     0.538312      0.163192      0.877427     Biso  1.000000 Cd
   Cd         1.0     0.961686      0.663192      0.622573     Biso  1.000000 Cd
   Cd         1.0     0.461686      0.836808      0.122571     Biso  1.000000 Cd
   Cd         1.0     0.038312      0.336808      0.377427     Biso  1.000000 Cd
   N          1.0     0.373322      0.171429      0.059606     Biso  1.000000 N
   N          1.0     0.126676      0.671430      0.440393     Biso  1.000000 N
   N          1.0     0.626676      0.828570      0.940394     Biso  1.000000 N
   N          1.0     0.873322      0.328570      0.559608     Biso  1.000000 N
   C          1.0     0.298518      0.280449      0.117212     Biso  1.000000 C
   C          1.0     0.201479      0.780448      0.382788     Biso  1.000000 C
   C          1.0     0.701479      0.719552      0.882788     Biso  1.000000 C
   C          1.0     0.798518      0.219552      0.617213     Biso  1.000000 C
   N          1.0     0.337895      0.454872      0.751202     Biso  1.000000 N
   N          1.0     0.162103      0.954872      0.748800     Biso  1.000000 N
   N          1.0     0.662104      0.545128      0.248799     Biso  1.000000 N
   N          1.0     0.837895      0.045128      0.251201     Biso  1.000000 N
   N          1.0     0.251574      0.245684      0.233403     Biso  1.000000 N
   N          1.0     0.248425      0.745684      0.266596     Biso  1.000000 N
   N          1.0     0.748424      0.754316      0.766597     Biso  1.000000 N
   N          1.0     0.751574      0.254316      0.733404     Biso  1.000000 N
   C          1.0     0.279672      0.448140      0.945950     Biso  1.000000 C
   C          1.0     0.220327      0.948140      0.554051     Biso  1.000000 C
   C          1.0     0.720326      0.551860      0.054051     Biso  1.000000 C
   C          1.0     0.779672      0.051860      0.445949     Biso  1.000000 C
   N          1.0     0.370527      0.068079      0.144010     Biso  1.000000 N
   N          1.0     0.129472      0.568079      0.355989     Biso  1.000000 N
   N          1.0     0.629471      0.931921      0.855989     Biso  1.000000 N
   N          1.0     0.870526      0.431921      0.644011     Biso  1.000000 N
   N          1.0     0.300880      0.111700      0.247126     Biso  1.000000 N
   N          1.0     0.199118      0.611700      0.252873     Biso  1.000000 N
   N          1.0     0.699118      0.888300      0.752874     Biso  1.000000 N
   N          1.0     0.800880      0.388300      0.747127     Biso  1.000000 N
   N          1.0     0.249918      0.571310      0.777259     Biso  1.000000 N
   N          1.0     0.250081      0.071310      0.722741     Biso  1.000000 N
   N          1.0     0.750082      0.428690      0.222740     Biso  1.000000 N
   N          1.0     0.749917      0.928690      0.277259     Biso  1.000000 N
   N          1.0     0.361182      0.374618      0.856586     Biso  1.000000 N
   N          1.0     0.138815      0.874617      0.643416     Biso  1.000000 N
   N          1.0     0.638815      0.625382      0.143415     Biso  1.000000 N
   N          1.0     0.861183      0.125383      0.356585     Biso  1.000000 N
   N          1.0     0.209865      0.571032      0.899498     Biso  1.000000 N
   N          1.0     0.290133      0.071032      0.600503     Biso  1.000000 N
   N          1.0     0.790132      0.428968      0.100502     Biso  1.000000 N
   N          1.0     0.709865      0.928968      0.399497     Biso  1.000000 N
   O          1.0     0.863665      0.172077      0.018007     Biso  1.000000 O
   O          1.0     0.636334      0.672077      0.481992     Biso  1.000000 O
   O          1.0     0.136333      0.827923      0.981993     Biso  1.000000 O
   O          1.0     0.363665      0.327922      0.518008     Biso  1.000000 O
   N          1.0     0.269590      0.409816      0.069426     Biso  1.000000 N
   N          1.0     0.230409      0.909817      0.430572     Biso  1.000000 N
   N          1.0     0.730408      0.590183      0.930574     Biso  1.000000 N
   N          1.0     0.769589      0.090184      0.569426     Biso  1.000000 N
   H          1.0     0.231899      0.486267      0.131773     Biso  1.000000 H
   H          1.0     0.268098      0.986267      0.368226     Biso  1.000000 H
   H          1.0     0.768098      0.513733      0.868227     Biso  1.000000 H
   H          1.0     0.731900      0.013732      0.631773     Biso  1.000000 H
   H          1.0     0.857167      0.269115      0.048285     Biso  1.000000 H
   H          1.0     0.642831      0.769115      0.451713     Biso  1.000000 H
   H          1.0     0.142831      0.730885      0.951714     Biso  1.000000 H
   H          1.0     0.357166      0.230885      0.548286     Biso  1.000000 H
   H          1.0     0.859980      0.116156      0.096845     Biso  1.000000 H
   H          1.0     0.640018      0.616156      0.403153     Biso  1.000000 H
   H          1.0     0.140018      0.883844      0.903154     Biso  1.000000 H
   H          1.0     0.359980      0.383844      0.596846     Biso  1.000000 H
