#======================================================================

# CRYSTAL DATA

#----------------------------------------------------------------------

data_VESTA_phase_1


_chemical_name_common                  '# Quantum Espresso PWSCF output snapsh'
_cell_length_a                         6.32304
_cell_length_b                         9.80134
_cell_length_c                         10.56892
_cell_angle_alpha                      89.99998
_cell_angle_beta                       98.63970
_cell_angle_gamma                      90
_space_group_name_H-M_alt              'P 1'
_space_group_IT_number                 1

loop_
_space_group_symop_operation_xyz
   'x, y, z'

loop_
   _atom_site_label
   _atom_site_occupancy
   _atom_site_fract_x
   _atom_site_fract_y
   _atom_site_fract_z
   _atom_site_adp_type
   _atom_site_B_iso_or_equiv
   _atom_site_type_symbol
   Cd         1.0     0.537593      0.163074      0.876802     Biso  1.000000 Cd
   Cd         1.0     0.962406      0.663074      0.623196     Biso  1.000000 Cd
   Cd         1.0     0.462406      0.836926      0.123195     Biso  1.000000 Cd
   Cd         1.0     0.037593      0.336926      0.376803     Biso  1.000000 Cd
   N          1.0     0.371817      0.170552      0.059164     Biso  1.000000 N
   N          1.0     0.128182      0.670553      0.440834     Biso  1.000000 N
   N          1.0     0.628182      0.829447      0.940834     Biso  1.000000 N
   N          1.0     0.871817      0.329447      0.559165     Biso  1.000000 N
   C          1.0     0.298208      0.279219      0.117062     Biso  1.000000 C
   C          1.0     0.201790      0.779218      0.382937     Biso  1.000000 C
   C          1.0     0.701790      0.720782      0.882936     Biso  1.000000 C
   C          1.0     0.798208      0.220782      0.617062     Biso  1.000000 C
   N          1.0     0.332705      0.452209      0.750960     Biso  1.000000 N
   N          1.0     0.167294      0.952209      0.749039     Biso  1.000000 N
   N          1.0     0.667294      0.547791      0.249039     Biso  1.000000 N
   N          1.0     0.832705      0.047791      0.250960     Biso  1.000000 N
   N          1.0     0.249037      0.244228      0.232481     Biso  1.000000 N
   N          1.0     0.250962      0.744228      0.267517     Biso  1.000000 N
   N          1.0     0.750962      0.755772      0.767517     Biso  1.000000 N
   N          1.0     0.749037      0.255772      0.732481     Biso  1.000000 N
   C          1.0     0.279815      0.446460      0.946462     Biso  1.000000 C
   C          1.0     0.220185      0.946460      0.553536     Biso  1.000000 C
   C          1.0     0.720184      0.553540      0.053537     Biso  1.000000 C
   C          1.0     0.779815      0.053540      0.446462     Biso  1.000000 C
   N          1.0     0.366133      0.067183      0.142692     Biso  1.000000 N
   N          1.0     0.133866      0.567183      0.357306     Biso  1.000000 N
   N          1.0     0.633866      0.932817      0.857306     Biso  1.000000 N
   N          1.0     0.866133      0.432817      0.642692     Biso  1.000000 N
   N          1.0     0.295899      0.110460      0.245519     Biso  1.000000 N
   N          1.0     0.204100      0.610460      0.254479     Biso  1.000000 N
   N          1.0     0.704100      0.889540      0.754479     Biso  1.000000 N
   N          1.0     0.795899      0.389540      0.745519     Biso  1.000000 N
   N          1.0     0.244703      0.567867      0.777335     Biso  1.000000 N
   N          1.0     0.255297      0.067867      0.722663     Biso  1.000000 N
   N          1.0     0.755297      0.432133      0.222663     Biso  1.000000 N
   N          1.0     0.744702      0.932133      0.277335     Biso  1.000000 N
   N          1.0     0.359427      0.373114      0.856641     Biso  1.000000 N
   N          1.0     0.140571      0.873113      0.643358     Biso  1.000000 N
   N          1.0     0.640571      0.626886      0.143358     Biso  1.000000 N
   N          1.0     0.859428      0.126887      0.356641     Biso  1.000000 N
   N          1.0     0.207857      0.568159      0.900001     Biso  1.000000 N
   N          1.0     0.292142      0.068159      0.599997     Biso  1.000000 N
   N          1.0     0.792141      0.431841      0.099997     Biso  1.000000 N
   N          1.0     0.707857      0.931841      0.400001     Biso  1.000000 N
   O          1.0     0.859125      0.174903      0.017529     Biso  1.000000 O
   O          1.0     0.640874      0.674903      0.482469     Biso  1.000000 O
   O          1.0     0.140874      0.825097      0.982469     Biso  1.000000 O
   O          1.0     0.359125      0.325096      0.517529     Biso  1.000000 O
   N          1.0     0.272921      0.408615      0.070240     Biso  1.000000 N
   N          1.0     0.227078      0.908616      0.429758     Biso  1.000000 N
   N          1.0     0.727078      0.591384      0.929759     Biso  1.000000 N
   N          1.0     0.772921      0.091385      0.570239     Biso  1.000000 N
   H          1.0     0.235891      0.484624      0.132655     Biso  1.000000 H
   H          1.0     0.264107      0.984624      0.367343     Biso  1.000000 H
   H          1.0     0.764107      0.515376      0.867343     Biso  1.000000 H
   H          1.0     0.735892      0.015375      0.632655     Biso  1.000000 H
   H          1.0     0.853948      0.271755      0.047265     Biso  1.000000 H
   H          1.0     0.646050      0.771755      0.452733     Biso  1.000000 H
   H          1.0     0.146050      0.728245      0.952733     Biso  1.000000 H
   H          1.0     0.353948      0.228245      0.547265     Biso  1.000000 H
   H          1.0     0.854866      0.119672      0.096358     Biso  1.000000 H
   H          1.0     0.645133      0.619672      0.403639     Biso  1.000000 H
   H          1.0     0.145133      0.880328      0.903639     Biso  1.000000 H
   H          1.0     0.354866      0.380328      0.596358     Biso  1.000000 H
