#======================================================================

# CRYSTAL DATA

#----------------------------------------------------------------------

data_VESTA_phase_1


_chemical_name_common                  '# Quantum Espresso PWSCF output snapsh'
_cell_length_a                         6.07857
_cell_length_b                         9.21229
_cell_length_c                         10.19375
_cell_angle_alpha                      89.99998
_cell_angle_beta                       101.09361
_cell_angle_gamma                      90.00001
_space_group_name_H-M_alt              'P 1'
_space_group_IT_number                 1

loop_
_space_group_symop_operation_xyz
   'x, y, z'

loop_
   _atom_site_label
   _atom_site_occupancy
   _atom_site_fract_x
   _atom_site_fract_y
   _atom_site_fract_z
   _atom_site_adp_type
   _atom_site_B_iso_or_equiv
   _atom_site_type_symbol
   Cd         1.0     0.543440      0.165046      0.881416     Biso  1.000000 Cd
   Cd         1.0     0.956571      0.665046      0.618594     Biso  1.000000 Cd
   Cd         1.0     0.456572      0.834954      0.118595     Biso  1.000000 Cd
   Cd         1.0     0.043440      0.334954      0.381416     Biso  1.000000 Cd
   N          1.0     0.384987      0.177231      0.061577     Biso  1.000000 N
   N          1.0     0.115024      0.677231      0.438433     Biso  1.000000 N
   N          1.0     0.615024      0.822769      0.938433     Biso  1.000000 N
   N          1.0     0.884987      0.322769      0.561577     Biso  1.000000 N
   C          1.0     0.286927      0.288679      0.111641     Biso  1.000000 C
   C          1.0     0.213082      0.788679      0.388370     Biso  1.000000 C
   C          1.0     0.713083      0.711321      0.888369     Biso  1.000000 C
   C          1.0     0.786928      0.211321      0.611641     Biso  1.000000 C
   N          1.0     0.387945      0.483143      0.749812     Biso  1.000000 N
   N          1.0     0.112066      0.983143      0.750198     Biso  1.000000 N
   N          1.0     0.612066      0.516856      0.250199     Biso  1.000000 N
   N          1.0     0.887945      0.016857      0.249812     Biso  1.000000 N
   N          1.0     0.255080      0.256902      0.235009     Biso  1.000000 N
   N          1.0     0.244930      0.756902      0.265001     Biso  1.000000 N
   N          1.0     0.744930      0.743098      0.765002     Biso  1.000000 N
   N          1.0     0.755080      0.243098      0.735009     Biso  1.000000 N
   C          1.0     0.274756      0.464615      0.934606     Biso  1.000000 C
   C          1.0     0.225254      0.964615      0.565404     Biso  1.000000 C
   C          1.0     0.725255      0.535384      0.065405     Biso  1.000000 C
   C          1.0     0.774756      0.035385      0.434606     Biso  1.000000 C
   N          1.0     0.414414      0.076338      0.157979     Biso  1.000000 N
   N          1.0     0.085596      0.576339      0.342032     Biso  1.000000 N
   N          1.0     0.585596      0.923662      0.842031     Biso  1.000000 N
   N          1.0     0.914414      0.423662      0.657979     Biso  1.000000 N
   N          1.0     0.338139      0.123272      0.260913     Biso  1.000000 N
   N          1.0     0.161871      0.623271      0.239098     Biso  1.000000 N
   N          1.0     0.661871      0.876729      0.739098     Biso  1.000000 N
   N          1.0     0.838139      0.376729      0.760913     Biso  1.000000 N
   N          1.0     0.294671      0.606104      0.772083     Biso  1.000000 N
   N          1.0     0.205339      0.106104      0.727927     Biso  1.000000 N
   N          1.0     0.705340      0.393896      0.227927     Biso  1.000000 N
   N          1.0     0.794671      0.893896      0.272083     Biso  1.000000 N
   N          1.0     0.380230      0.391311      0.851421     Biso  1.000000 N
   N          1.0     0.119781      0.891312      0.648589     Biso  1.000000 N
   N          1.0     0.619780      0.608689      0.148589     Biso  1.000000 N
   N          1.0     0.880230      0.108689      0.351421     Biso  1.000000 N
   N          1.0     0.221502      0.598886      0.889029     Biso  1.000000 N
   N          1.0     0.278509      0.098886      0.610981     Biso  1.000000 N
   N          1.0     0.778508      0.401114      0.110981     Biso  1.000000 N
   N          1.0     0.721502      0.901114      0.389029     Biso  1.000000 N
   O          1.0     0.892704      0.145087      0.014305     Biso  1.000000 O
   O          1.0     0.607307      0.645087      0.485705     Biso  1.000000 O
   O          1.0     0.107307      0.854913      0.985705     Biso  1.000000 O
   O          1.0     0.392704      0.354913      0.514305     Biso  1.000000 O
   N          1.0     0.225902      0.417945      0.052295     Biso  1.000000 N
   N          1.0     0.274109      0.917946      0.447714     Biso  1.000000 N
   N          1.0     0.774108      0.582055      0.947714     Biso  1.000000 N
   N          1.0     0.725902      0.082055      0.552296     Biso  1.000000 N
   H          1.0     0.185794      0.499586      0.115661     Biso  1.000000 H
   H          1.0     0.314216      0.999586      0.384349     Biso  1.000000 H
   H          1.0     0.814216      0.500414      0.884349     Biso  1.000000 H
   H          1.0     0.685794      0.000414      0.615661     Biso  1.000000 H
   H          1.0     0.878879      0.242896      0.055001     Biso  1.000000 H
   H          1.0     0.621132      0.742896      0.445009     Biso  1.000000 H
   H          1.0     0.121132      0.757104      0.945009     Biso  1.000000 H
   H          1.0     0.378879      0.257104      0.555001     Biso  1.000000 H
   H          1.0     0.903132      0.078433      0.092704     Biso  1.000000 H
   H          1.0     0.596879      0.578433      0.407306     Biso  1.000000 H
   H          1.0     0.096879      0.921567      0.907306     Biso  1.000000 H
   H          1.0     0.403132      0.421567      0.592704     Biso  1.000000 H
