#======================================================================

# CRYSTAL DATA

#----------------------------------------------------------------------

data_VESTA_phase_1


_chemical_name_common                  '# Quantum Espresso PWSCF output snapsh'
_cell_length_a                         6.09449
_cell_length_b                         9.36013
_cell_length_c                         10.30912
_cell_angle_alpha                      89.99998
_cell_angle_beta                       100.57674
_cell_angle_gamma                      90
_space_group_name_H-M_alt              'P 1'
_space_group_IT_number                 1

loop_
_space_group_symop_operation_xyz
   'x, y, z'

loop_
   _atom_site_label
   _atom_site_occupancy
   _atom_site_fract_x
   _atom_site_fract_y
   _atom_site_fract_z
   _atom_site_adp_type
   _atom_site_B_iso_or_equiv
   _atom_site_type_symbol
   Cd         1.0     0.541944      0.164414      0.880740     Biso  1.000000 Cd
   Cd         1.0     0.958053      0.664414      0.619267     Biso  1.000000 Cd
   Cd         1.0     0.458053      0.835586      0.119267     Biso  1.000000 Cd
   Cd         1.0     0.041944      0.335586      0.380740     Biso  1.000000 Cd
   N          1.0     0.382951      0.176332      0.061710     Biso  1.000000 N
   N          1.0     0.117046      0.676332      0.438297     Biso  1.000000 N
   N          1.0     0.617046      0.823668      0.938297     Biso  1.000000 N
   N          1.0     0.882951      0.323668      0.561710     Biso  1.000000 N
   C          1.0     0.291650      0.287455      0.114084     Biso  1.000000 C
   C          1.0     0.208347      0.787455      0.385924     Biso  1.000000 C
   C          1.0     0.708347      0.712545      0.885924     Biso  1.000000 C
   C          1.0     0.791650      0.212544      0.614083     Biso  1.000000 C
   N          1.0     0.375845      0.475600      0.750587     Biso  1.000000 N
   N          1.0     0.124152      0.975601      0.749419     Biso  1.000000 N
   N          1.0     0.624152      0.524400      0.249419     Biso  1.000000 N
   N          1.0     0.875845      0.024400      0.250587     Biso  1.000000 N
   N          1.0     0.257030      0.254961      0.235614     Biso  1.000000 N
   N          1.0     0.242967      0.754961      0.264393     Biso  1.000000 N
   N          1.0     0.742967      0.745039      0.764392     Biso  1.000000 N
   N          1.0     0.757030      0.245039      0.735614     Biso  1.000000 N
   C          1.0     0.276261      0.460567      0.938195     Biso  1.000000 C
   C          1.0     0.223736      0.960567      0.561811     Biso  1.000000 C
   C          1.0     0.723736      0.539433      0.061811     Biso  1.000000 C
   C          1.0     0.776261      0.039433      0.438196     Biso  1.000000 C
   N          1.0     0.403980      0.074392      0.154606     Biso  1.000000 N
   N          1.0     0.096017      0.574392      0.345401     Biso  1.000000 N
   N          1.0     0.596017      0.925608      0.845401     Biso  1.000000 N
   N          1.0     0.903980      0.425608      0.654606     Biso  1.000000 N
   N          1.0     0.330842      0.120700      0.257834     Biso  1.000000 N
   N          1.0     0.169155      0.620700      0.242173     Biso  1.000000 N
   N          1.0     0.669155      0.879300      0.742173     Biso  1.000000 N
   N          1.0     0.830842      0.379300      0.757834     Biso  1.000000 N
   N          1.0     0.284981      0.597206      0.773999     Biso  1.000000 N
   N          1.0     0.215016      0.097206      0.726007     Biso  1.000000 N
   N          1.0     0.715016      0.402794      0.226007     Biso  1.000000 N
   N          1.0     0.784981      0.902794      0.273999     Biso  1.000000 N
   N          1.0     0.374905      0.386734      0.853166     Biso  1.000000 N
   N          1.0     0.125092      0.886734      0.646840     Biso  1.000000 N
   N          1.0     0.625092      0.613265      0.146840     Biso  1.000000 N
   N          1.0     0.874905      0.113265      0.353166     Biso  1.000000 N
   N          1.0     0.220246      0.592124      0.892439     Biso  1.000000 N
   N          1.0     0.279751      0.092124      0.607568     Biso  1.000000 N
   N          1.0     0.779751      0.407876      0.107568     Biso  1.000000 N
   N          1.0     0.720246      0.907876      0.392438     Biso  1.000000 N
   O          1.0     0.887221      0.151273      0.016201     Biso  1.000000 O
   O          1.0     0.612776      0.651273      0.483805     Biso  1.000000 O
   O          1.0     0.112776      0.848727      0.983805     Biso  1.000000 O
   O          1.0     0.387221      0.348727      0.516201     Biso  1.000000 O
   N          1.0     0.237438      0.416622      0.057745     Biso  1.000000 N
   N          1.0     0.262559      0.916621      0.442262     Biso  1.000000 N
   N          1.0     0.762559      0.583378      0.942262     Biso  1.000000 N
   N          1.0     0.737438      0.083378      0.557744     Biso  1.000000 N
   H          1.0     0.197439      0.496932      0.120503     Biso  1.000000 H
   H          1.0     0.302558      0.996932      0.379503     Biso  1.000000 H
   H          1.0     0.802557      0.503069      0.879503     Biso  1.000000 H
   H          1.0     0.697439      0.003068      0.620503     Biso  1.000000 H
   H          1.0     0.874610      0.249150      0.053542     Biso  1.000000 H
   H          1.0     0.625387      0.749150      0.446464     Biso  1.000000 H
   H          1.0     0.125387      0.750850      0.946464     Biso  1.000000 H
   H          1.0     0.374610      0.250850      0.553542     Biso  1.000000 H
   H          1.0     0.893117      0.087998      0.094918     Biso  1.000000 H
   H          1.0     0.606880      0.587997      0.405089     Biso  1.000000 H
   H          1.0     0.106880      0.912002      0.905089     Biso  1.000000 H
   H          1.0     0.393117      0.412002      0.594918     Biso  1.000000 H
