#======================================================================

# CRYSTAL DATA

#----------------------------------------------------------------------

data_VESTA_phase_1


_chemical_name_common                  '# Quantum Espresso PWSCF output snapsh'
_cell_length_a                         6.03633
_cell_length_b                         9.00333
_cell_length_c                         9.95762
_cell_angle_alpha                      90
_cell_angle_beta                       102.04108
_cell_angle_gamma                      90
_space_group_name_H-M_alt              'P 1'
_space_group_IT_number                 1

loop_
_space_group_symop_operation_xyz
   'x, y, z'

loop_
   _atom_site_label
   _atom_site_occupancy
   _atom_site_fract_x
   _atom_site_fract_y
   _atom_site_fract_z
   _atom_site_adp_type
   _atom_site_B_iso_or_equiv
   _atom_site_type_symbol
   Cd         1.0     0.546828      0.166658      0.881948     Biso  1.000000 Cd
   Cd         1.0     0.953220      0.666652      0.618055     Biso  1.000000 Cd
   Cd         1.0     0.453219      0.833348      0.118055     Biso  1.000000 Cd
   Cd         1.0     0.046827      0.333342      0.381948     Biso  1.000000 Cd
   N          1.0     0.386481      0.176852      0.060149     Biso  1.000000 N
   N          1.0     0.113564      0.676848      0.439854     Biso  1.000000 N
   N          1.0     0.613564      0.823152      0.939855     Biso  1.000000 N
   N          1.0     0.886482      0.323149      0.560149     Biso  1.000000 N
   C          1.0     0.280549      0.288734      0.107671     Biso  1.000000 C
   C          1.0     0.219480      0.788736      0.392329     Biso  1.000000 C
   C          1.0     0.719481      0.711264      0.892329     Biso  1.000000 C
   C          1.0     0.780549      0.211267      0.607672     Biso  1.000000 C
   N          1.0     0.403183      0.493684      0.747619     Biso  1.000000 N
   N          1.0     0.096839      0.993679      0.752384     Biso  1.000000 N
   N          1.0     0.596839      0.506321      0.252384     Biso  1.000000 N
   N          1.0     0.903181      0.006316      0.247619     Biso  1.000000 N
   N          1.0     0.252478      0.257658      0.234263     Biso  1.000000 N
   N          1.0     0.247567      0.757658      0.265740     Biso  1.000000 N
   N          1.0     0.747567      0.742342      0.765741     Biso  1.000000 N
   N          1.0     0.752479      0.242342      0.734265     Biso  1.000000 N
   C          1.0     0.273038      0.469727      0.929271     Biso  1.000000 C
   C          1.0     0.226982      0.969728      0.570732     Biso  1.000000 C
   C          1.0     0.726983      0.530272      0.070730     Biso  1.000000 C
   C          1.0     0.773038      0.030274      0.429271     Biso  1.000000 C
   N          1.0     0.426944      0.077467      0.161797     Biso  1.000000 N
   N          1.0     0.073115      0.577461      0.338209     Biso  1.000000 N
   N          1.0     0.573115      0.922539      0.838208     Biso  1.000000 N
   N          1.0     0.926945      0.422533      0.661798     Biso  1.000000 N
   N          1.0     0.346776      0.124974      0.265141     Biso  1.000000 N
   N          1.0     0.153276      0.624971      0.234864     Biso  1.000000 N
   N          1.0     0.653277      0.875029      0.734865     Biso  1.000000 N
   N          1.0     0.846777      0.375027      0.765142     Biso  1.000000 N
   N          1.0     0.306860      0.618527      0.768639     Biso  1.000000 N
   N          1.0     0.193174      0.118520      0.731374     Biso  1.000000 N
   N          1.0     0.693174      0.381480      0.231373     Biso  1.000000 N
   N          1.0     0.806859      0.881473      0.268638     Biso  1.000000 N
   N          1.0     0.387105      0.397445      0.848032     Biso  1.000000 N
   N          1.0     0.112904      0.897448      0.651964     Biso  1.000000 N
   N          1.0     0.612903      0.602553      0.151964     Biso  1.000000 N
   N          1.0     0.887105      0.102554      0.348031     Biso  1.000000 N
   N          1.0     0.222777      0.607890      0.883997     Biso  1.000000 N
   N          1.0     0.277261      0.107887      0.616017     Biso  1.000000 N
   N          1.0     0.777260      0.392113      0.116016     Biso  1.000000 N
   N          1.0     0.722777      0.892110      0.383996     Biso  1.000000 N
   O          1.0     0.900891      0.138950      0.012008     Biso  1.000000 O
   O          1.0     0.599151      0.638945      0.488005     Biso  1.000000 O
   O          1.0     0.099150      0.861055      0.988006     Biso  1.000000 O
   O          1.0     0.400891      0.361050      0.512009     Biso  1.000000 O
   N          1.0     0.212306      0.418814      0.044728     Biso  1.000000 N
   N          1.0     0.287703      0.918821      0.455268     Biso  1.000000 N
   N          1.0     0.787705      0.581179      0.955268     Biso  1.000000 N
   N          1.0     0.712307      0.081186      0.544729     Biso  1.000000 N
   H          1.0     0.172694      0.502227      0.110019     Biso  1.000000 H
   H          1.0     0.327317      0.002235      0.389977     Biso  1.000000 H
   H          1.0     0.827318      0.497765      0.889979     Biso  1.000000 H
   H          1.0     0.672695      0.997773      0.610020     Biso  1.000000 H
   H          1.0     0.884140      0.236370      0.057648     Biso  1.000000 H
   H          1.0     0.615889      0.736368      0.442368     Biso  1.000000 H
   H          1.0     0.115890      0.763632      0.942369     Biso  1.000000 H
   H          1.0     0.384141      0.263630      0.557649     Biso  1.000000 H
   H          1.0     0.916831      0.067083      0.090163     Biso  1.000000 H
   H          1.0     0.583190      0.567084      0.409845     Biso  1.000000 H
   H          1.0     0.083190      0.932916      0.909844     Biso  1.000000 H
   H          1.0     0.416830      0.432917      0.590163     Biso  1.000000 H
