#======================================================================

# CRYSTAL DATA

#----------------------------------------------------------------------

data_VESTA_phase_1


_chemical_name_common                  '# Quantum Espresso PWSCF output snapsh'
_cell_length_a                         6.01792
_cell_length_b                         8.94893
_cell_length_c                         9.88061
_cell_angle_alpha                      90
_cell_angle_beta                       102.35133
_cell_angle_gamma                      90
_space_group_name_H-M_alt              'P 1'
_space_group_IT_number                 1

loop_
_space_group_symop_operation_xyz
   'x, y, z'

loop_
   _atom_site_label
   _atom_site_occupancy
   _atom_site_fract_x
   _atom_site_fract_y
   _atom_site_fract_z
   _atom_site_adp_type
   _atom_site_B_iso_or_equiv
   _atom_site_type_symbol
   Cd         1.0     0.548069      0.167296      0.882061     Biso  1.000000 Cd
   Cd         1.0     0.951968      0.667293      0.617943     Biso  1.000000 Cd
   Cd         1.0     0.451968      0.832707      0.117943     Biso  1.000000 Cd
   Cd         1.0     0.048069      0.332704      0.382061     Biso  1.000000 Cd
   N          1.0     0.386605      0.176359      0.059495     Biso  1.000000 N
   N          1.0     0.113431      0.676358      0.440508     Biso  1.000000 N
   N          1.0     0.613431      0.823642      0.940509     Biso  1.000000 N
   N          1.0     0.886605      0.323642      0.559495     Biso  1.000000 N
   C          1.0     0.279102      0.288416      0.106565     Biso  1.000000 C
   C          1.0     0.220928      0.788417      0.393438     Biso  1.000000 C
   C          1.0     0.720928      0.711583      0.893438     Biso  1.000000 C
   C          1.0     0.779102      0.211585      0.606566     Biso  1.000000 C
   N          1.0     0.406653      0.496367      0.746751     Biso  1.000000 N
   N          1.0     0.093374      0.996365      0.753254     Biso  1.000000 N
   N          1.0     0.593375      0.503635      0.253253     Biso  1.000000 N
   N          1.0     0.906652      0.003633      0.246751     Biso  1.000000 N
   N          1.0     0.252009      0.257423      0.234132     Biso  1.000000 N
   N          1.0     0.248027      0.757423      0.265871     Biso  1.000000 N
   N          1.0     0.748027      0.742577      0.765872     Biso  1.000000 N
   N          1.0     0.752010      0.242577      0.734134     Biso  1.000000 N
   C          1.0     0.272772      0.470953      0.927871     Biso  1.000000 C
   C          1.0     0.227254      0.970953      0.572133     Biso  1.000000 C
   C          1.0     0.727256      0.529047      0.072131     Biso  1.000000 C
   C          1.0     0.772773      0.029048      0.427871     Biso  1.000000 C
   N          1.0     0.429620      0.077262      0.162512     Biso  1.000000 N
   N          1.0     0.070422      0.577260      0.337494     Biso  1.000000 N
   N          1.0     0.570421      0.922740      0.837493     Biso  1.000000 N
   N          1.0     0.929620      0.422738      0.662513     Biso  1.000000 N
   N          1.0     0.348641      0.124866      0.266172     Biso  1.000000 N
   N          1.0     0.151398      0.624864      0.233832     Biso  1.000000 N
   N          1.0     0.651398      0.875136      0.733833     Biso  1.000000 N
   N          1.0     0.848642      0.375135      0.766173     Biso  1.000000 N
   N          1.0     0.309780      0.621731      0.767598     Biso  1.000000 N
   N          1.0     0.190252      0.121729      0.732411     Biso  1.000000 N
   N          1.0     0.690253      0.378271      0.232410     Biso  1.000000 N
   N          1.0     0.809779      0.878269      0.267597     Biso  1.000000 N
   N          1.0     0.388653      0.398933      0.846892     Biso  1.000000 N
   N          1.0     0.111370      0.898935      0.653110     Biso  1.000000 N
   N          1.0     0.611370      0.601066      0.153110     Biso  1.000000 N
   N          1.0     0.888652      0.101066      0.346891     Biso  1.000000 N
   N          1.0     0.223218      0.610166      0.882732     Biso  1.000000 N
   N          1.0     0.276815      0.110165      0.617277     Biso  1.000000 N
   N          1.0     0.776815      0.389835      0.117276     Biso  1.000000 N
   N          1.0     0.723218      0.889834      0.382731     Biso  1.000000 N
   O          1.0     0.903347      0.137906      0.011578     Biso  1.000000 O
   O          1.0     0.596688      0.637904      0.488429     Biso  1.000000 O
   O          1.0     0.096687      0.862096      0.988430     Biso  1.000000 O
   O          1.0     0.403347      0.362094      0.511579     Biso  1.000000 O
   N          1.0     0.209552      0.418914      0.042906     Biso  1.000000 N
   N          1.0     0.290470      0.918917      0.457095     Biso  1.000000 N
   N          1.0     0.790472      0.581083      0.957095     Biso  1.000000 N
   N          1.0     0.709553      0.081086      0.542907     Biso  1.000000 N
   H          1.0     0.170297      0.502763      0.108998     Biso  1.000000 H
   H          1.0     0.329727      0.002766      0.391002     Biso  1.000000 H
   H          1.0     0.829727      0.497234      0.891004     Biso  1.000000 H
   H          1.0     0.670297      0.997237      0.608999     Biso  1.000000 H
   H          1.0     0.885453      0.235170      0.058501     Biso  1.000000 H
   H          1.0     0.614576      0.735169      0.441508     Biso  1.000000 H
   H          1.0     0.114577      0.764831      0.941509     Biso  1.000000 H
   H          1.0     0.385453      0.264830      0.558502     Biso  1.000000 H
   H          1.0     0.920388      0.064641      0.089779     Biso  1.000000 H
   H          1.0     0.579640      0.564642      0.410228     Biso  1.000000 H
   H          1.0     0.079639      0.935358      0.910227     Biso  1.000000 H
   H          1.0     0.420386      0.435359      0.589778     Biso  1.000000 H
