#======================================================================

# CRYSTAL DATA

#----------------------------------------------------------------------

data_VESTA_phase_1


_chemical_name_common                  '# Quantum Espresso PWSCF output snapsh'
_cell_length_a                         6.10812
_cell_length_b                         9.44813
_cell_length_c                         10.36842
_cell_angle_alpha                      90.00003
_cell_angle_beta                       100.26104
_cell_angle_gamma                      89.99999
_space_group_name_H-M_alt              'P 1'
_space_group_IT_number                 1

loop_
_space_group_symop_operation_xyz
   'x, y, z'

loop_
   _atom_site_label
   _atom_site_occupancy
   _atom_site_fract_x
   _atom_site_fract_y
   _atom_site_fract_z
   _atom_site_adp_type
   _atom_site_B_iso_or_equiv
   _atom_site_type_symbol
   Cd         1.0     0.541135      0.164010      0.880169     Biso  1.000000 Cd
   Cd         1.0     0.958864      0.664010      0.619837     Biso  1.000000 Cd
   Cd         1.0     0.458864      0.835990      0.119837     Biso  1.000000 Cd
   Cd         1.0     0.041135      0.335990      0.380169     Biso  1.000000 Cd
   N          1.0     0.381269      0.175572      0.061500     Biso  1.000000 N
   N          1.0     0.118731      0.675573      0.438505     Biso  1.000000 N
   N          1.0     0.618731      0.824427      0.938505     Biso  1.000000 N
   N          1.0     0.881269      0.324428      0.561500     Biso  1.000000 N
   C          1.0     0.294122      0.286421      0.115275     Biso  1.000000 C
   C          1.0     0.205875      0.786417      0.384730     Biso  1.000000 C
   C          1.0     0.705875      0.713583      0.884730     Biso  1.000000 C
   C          1.0     0.794122      0.213580      0.615275     Biso  1.000000 C
   N          1.0     0.368317      0.471049      0.750933     Biso  1.000000 N
   N          1.0     0.131682      0.971049      0.749071     Biso  1.000000 N
   N          1.0     0.631682      0.528951      0.249071     Biso  1.000000 N
   N          1.0     0.868317      0.028951      0.250933     Biso  1.000000 N
   N          1.0     0.257692      0.253480      0.235775     Biso  1.000000 N
   N          1.0     0.242307      0.753481      0.264230     Biso  1.000000 N
   N          1.0     0.742307      0.746519      0.764230     Biso  1.000000 N
   N          1.0     0.757692      0.246520      0.735775     Biso  1.000000 N
   C          1.0     0.277145      0.458021      0.940192     Biso  1.000000 C
   C          1.0     0.222852      0.958021      0.559817     Biso  1.000000 C
   C          1.0     0.722853      0.541979      0.059817     Biso  1.000000 C
   C          1.0     0.777145      0.041979      0.440192     Biso  1.000000 C
   N          1.0     0.397282      0.073161      0.152422     Biso  1.000000 N
   N          1.0     0.102717      0.573161      0.347583     Biso  1.000000 N
   N          1.0     0.602717      0.926839      0.847583     Biso  1.000000 N
   N          1.0     0.897282      0.426839      0.652422     Biso  1.000000 N
   N          1.0     0.325898      0.119015      0.255873     Biso  1.000000 N
   N          1.0     0.174101      0.619015      0.244132     Biso  1.000000 N
   N          1.0     0.674101      0.880985      0.744132     Biso  1.000000 N
   N          1.0     0.825898      0.380985      0.755873     Biso  1.000000 N
   N          1.0     0.278650      0.591766      0.774958     Biso  1.000000 N
   N          1.0     0.221349      0.091766      0.725046     Biso  1.000000 N
   N          1.0     0.721349      0.408234      0.225046     Biso  1.000000 N
   N          1.0     0.778650      0.908233      0.274959     Biso  1.000000 N
   N          1.0     0.371816      0.383984      0.854123     Biso  1.000000 N
   N          1.0     0.128184      0.883985      0.645881     Biso  1.000000 N
   N          1.0     0.628184      0.616015      0.145881     Biso  1.000000 N
   N          1.0     0.871816      0.116016      0.354123     Biso  1.000000 N
   N          1.0     0.219019      0.587880      0.894265     Biso  1.000000 N
   N          1.0     0.280980      0.087880      0.605739     Biso  1.000000 N
   N          1.0     0.780980      0.412120      0.105739     Biso  1.000000 N
   N          1.0     0.719019      0.912119      0.394265     Biso  1.000000 N
   O          1.0     0.883411      0.155443      0.017191     Biso  1.000000 O
   O          1.0     0.616588      0.655443      0.482814     Biso  1.000000 O
   O          1.0     0.116589      0.844556      0.982814     Biso  1.000000 O
   O          1.0     0.383411      0.344557      0.517191     Biso  1.000000 O
   N          1.0     0.244533      0.415582      0.060781     Biso  1.000000 N
   N          1.0     0.255468      0.915584      0.439222     Biso  1.000000 N
   N          1.0     0.755467      0.584416      0.939222     Biso  1.000000 N
   N          1.0     0.744533      0.084418      0.560780     Biso  1.000000 N
   H          1.0     0.204721      0.495090      0.123297     Biso  1.000000 H
   H          1.0     0.295277      0.995089      0.376709     Biso  1.000000 H
   H          1.0     0.795277      0.504911      0.876709     Biso  1.000000 H
   H          1.0     0.704721      0.004911      0.623297     Biso  1.000000 H
   H          1.0     0.871551      0.253254      0.052700     Biso  1.000000 H
   H          1.0     0.628448      0.753254      0.447305     Biso  1.000000 H
   H          1.0     0.128448      0.746746      0.947305     Biso  1.000000 H
   H          1.0     0.371551      0.246746      0.552700     Biso  1.000000 H
   H          1.0     0.886780      0.094000      0.096016     Biso  1.000000 H
   H          1.0     0.613219      0.594000      0.403989     Biso  1.000000 H
   H          1.0     0.113219      0.906000      0.903989     Biso  1.000000 H
   H          1.0     0.386780      0.406000      0.596015     Biso  1.000000 H
