#======================================================================

# CRYSTAL DATA

#----------------------------------------------------------------------

data_VESTA_phase_1


_chemical_name_common                  '# Quantum Espresso PWSCF output snapsh'
_cell_length_a                         6.06428
_cell_length_b                         9.10857
_cell_length_c                         10.08902
_cell_angle_alpha                      90.00002
_cell_angle_beta                       101.51708
_cell_angle_gamma                      89.99999
_space_group_name_H-M_alt              'P 1'
_space_group_IT_number                 1

loop_
_space_group_symop_operation_xyz
   'x, y, z'

loop_
   _atom_site_label
   _atom_site_occupancy
   _atom_site_fract_x
   _atom_site_fract_y
   _atom_site_fract_z
   _atom_site_adp_type
   _atom_site_B_iso_or_equiv
   _atom_site_type_symbol
   Cd         1.0     0.544951      0.165773      0.881723     Biso  1.000000 Cd
   Cd         1.0     0.955080      0.665773      0.618281     Biso  1.000000 Cd
   Cd         1.0     0.455079      0.834227      0.118281     Biso  1.000000 Cd
   Cd         1.0     0.044951      0.334227      0.381723     Biso  1.000000 Cd
   N          1.0     0.385956      0.177319      0.061057     Biso  1.000000 N
   N          1.0     0.114076      0.677319      0.438947     Biso  1.000000 N
   N          1.0     0.614076      0.822681      0.938947     Biso  1.000000 N
   N          1.0     0.885956      0.322682      0.561057     Biso  1.000000 N
   C          1.0     0.283660      0.288946      0.109718     Biso  1.000000 C
   C          1.0     0.216371      0.788945      0.390286     Biso  1.000000 C
   C          1.0     0.716371      0.711055      0.890286     Biso  1.000000 C
   C          1.0     0.783660      0.211055      0.609718     Biso  1.000000 C
   N          1.0     0.395784      0.488474      0.748931     Biso  1.000000 N
   N          1.0     0.104248      0.988474      0.751073     Biso  1.000000 N
   N          1.0     0.604248      0.511526      0.251073     Biso  1.000000 N
   N          1.0     0.895784      0.011526      0.248931     Biso  1.000000 N
   N          1.0     0.253666      0.257556      0.234568     Biso  1.000000 N
   N          1.0     0.246366      0.757556      0.265436     Biso  1.000000 N
   N          1.0     0.746366      0.742444      0.765436     Biso  1.000000 N
   N          1.0     0.753666      0.242444      0.734568     Biso  1.000000 N
   C          1.0     0.273790      0.467261      0.931985     Biso  1.000000 C
   C          1.0     0.226241      0.967260      0.568019     Biso  1.000000 C
   C          1.0     0.726242      0.532740      0.068019     Biso  1.000000 C
   C          1.0     0.773790      0.032740      0.431985     Biso  1.000000 C
   N          1.0     0.421041      0.077205      0.160029     Biso  1.000000 N
   N          1.0     0.078990      0.577205      0.339976     Biso  1.000000 N
   N          1.0     0.578990      0.922795      0.839976     Biso  1.000000 N
   N          1.0     0.921041      0.422795      0.660029     Biso  1.000000 N
   N          1.0     0.342679      0.124445      0.263004     Biso  1.000000 N
   N          1.0     0.157352      0.624445      0.237000     Biso  1.000000 N
   N          1.0     0.657352      0.875555      0.737000     Biso  1.000000 N
   N          1.0     0.842679      0.375555      0.763004     Biso  1.000000 N
   N          1.0     0.300811      0.612329      0.770492     Biso  1.000000 N
   N          1.0     0.199220      0.112329      0.729512     Biso  1.000000 N
   N          1.0     0.699220      0.387671      0.229512     Biso  1.000000 N
   N          1.0     0.800811      0.887671      0.270492     Biso  1.000000 N
   N          1.0     0.383803      0.394483      0.849920     Biso  1.000000 N
   N          1.0     0.116229      0.894483      0.650084     Biso  1.000000 N
   N          1.0     0.616228      0.605518      0.150084     Biso  1.000000 N
   N          1.0     0.883803      0.105517      0.349920     Biso  1.000000 N
   N          1.0     0.222032      0.603430      0.886531     Biso  1.000000 N
   N          1.0     0.278000      0.103430      0.613473     Biso  1.000000 N
   N          1.0     0.777999      0.396570      0.113473     Biso  1.000000 N
   N          1.0     0.722032      0.896570      0.386531     Biso  1.000000 N
   O          1.0     0.896593      0.141565      0.013030     Biso  1.000000 O
   O          1.0     0.603438      0.641565      0.486973     Biso  1.000000 O
   O          1.0     0.103438      0.858435      0.986973     Biso  1.000000 O
   O          1.0     0.396593      0.358435      0.513030     Biso  1.000000 O
   N          1.0     0.218665      0.418489      0.048468     Biso  1.000000 N
   N          1.0     0.281366      0.918489      0.451536     Biso  1.000000 N
   N          1.0     0.781366      0.581511      0.951536     Biso  1.000000 N
   N          1.0     0.718665      0.081511      0.548468     Biso  1.000000 N
   H          1.0     0.178605      0.500997      0.112590     Biso  1.000000 H
   H          1.0     0.321426      0.000997      0.387414     Biso  1.000000 H
   H          1.0     0.821426      0.499003      0.887414     Biso  1.000000 H
   H          1.0     0.678605      0.999003      0.612590     Biso  1.000000 H
   H          1.0     0.881642      0.239223      0.056176     Biso  1.000000 H
   H          1.0     0.618389      0.739223      0.443827     Biso  1.000000 H
   H          1.0     0.118389      0.760777      0.943827     Biso  1.000000 H
   H          1.0     0.381642      0.260777      0.556176     Biso  1.000000 H
   H          1.0     0.909944      0.072354      0.091227     Biso  1.000000 H
   H          1.0     0.590088      0.572354      0.408777     Biso  1.000000 H
   H          1.0     0.090088      0.927646      0.908776     Biso  1.000000 H
   H          1.0     0.409943      0.427646      0.591227     Biso  1.000000 H
