#======================================================================

# CRYSTAL DATA

#----------------------------------------------------------------------

data_VESTA_phase_1


_chemical_name_common                  '# Quantum Espresso PWSCF output snapsh'
_cell_length_a                         5.96826
_cell_length_b                         8.79450
_cell_length_c                         9.64916
_cell_angle_alpha                      90.00102
_cell_angle_beta                       103.34487
_cell_angle_gamma                      90.00105
_space_group_name_H-M_alt              'P 1'
_space_group_IT_number                 1

loop_
_space_group_symop_operation_xyz
   'x, y, z'

loop_
   _atom_site_label
   _atom_site_occupancy
   _atom_site_fract_x
   _atom_site_fract_y
   _atom_site_fract_z
   _atom_site_adp_type
   _atom_site_B_iso_or_equiv
   _atom_site_type_symbol
   Cd         1.0     0.553314      0.170375      0.882726     Biso  1.000000 Cd
   Cd         1.0     0.946695      0.670352      0.617275     Biso  1.000000 Cd
   Cd         1.0     0.446708      0.829626      0.117277     Biso  1.000000 Cd
   Cd         1.0     0.053327      0.329649      0.382729     Biso  1.000000 Cd
   N          1.0     0.386624      0.174214      0.056921     Biso  1.000000 N
   N          1.0     0.113394      0.674232      0.443083     Biso  1.000000 N
   N          1.0     0.613399      0.825788      0.943083     Biso  1.000000 N
   N          1.0     0.886629      0.325769      0.556920     Biso  1.000000 N
   C          1.0     0.275824      0.286905      0.103159     Biso  1.000000 C
   C          1.0     0.224191      0.786926      0.396843     Biso  1.000000 C
   C          1.0     0.724199      0.713097      0.896845     Biso  1.000000 C
   C          1.0     0.775832      0.213076      0.603161     Biso  1.000000 C
   N          1.0     0.414451      0.504324      0.743773     Biso  1.000000 N
   N          1.0     0.085567      0.004315      0.756237     Biso  1.000000 N
   N          1.0     0.585572      0.495677      0.256231     Biso  1.000000 N
   N          1.0     0.914456      0.995686      0.243767     Biso  1.000000 N
   N          1.0     0.251356      0.255716      0.233553     Biso  1.000000 N
   N          1.0     0.248665      0.755726      0.266451     Biso  1.000000 N
   N          1.0     0.748667      0.744285      0.766450     Biso  1.000000 N
   N          1.0     0.751357      0.244275      0.733553     Biso  1.000000 N
   C          1.0     0.272305      0.474442      0.924004     Biso  1.000000 C
   C          1.0     0.227711      0.974453      0.576004     Biso  1.000000 C
   C          1.0     0.727717      0.525559      0.076001     Biso  1.000000 C
   C          1.0     0.772312      0.025548      0.424000     Biso  1.000000 C
   N          1.0     0.435766      0.075352      0.163520     Biso  1.000000 N
   N          1.0     0.064261      0.575362      0.336488     Biso  1.000000 N
   N          1.0     0.564257      0.924649      0.836484     Biso  1.000000 N
   N          1.0     0.935762      0.424639      0.663516     Biso  1.000000 N
   N          1.0     0.352810      0.122961      0.268315     Biso  1.000000 N
   N          1.0     0.147221      0.622964      0.231693     Biso  1.000000 N
   N          1.0     0.647213      0.877041      0.731689     Biso  1.000000 N
   N          1.0     0.852802      0.377037      0.768311     Biso  1.000000 N
   N          1.0     0.316318      0.631057      0.764526     Biso  1.000000 N
   N          1.0     0.183695      0.131054      0.735494     Biso  1.000000 N
   N          1.0     0.683705      0.368945      0.235478     Biso  1.000000 N
   N          1.0     0.816328      0.868947      0.264510     Biso  1.000000 N
   N          1.0     0.392238      0.403345      0.843198     Biso  1.000000 N
   N          1.0     0.107780      0.903342      0.656805     Biso  1.000000 N
   N          1.0     0.607785      0.596657      0.156806     Biso  1.000000 N
   N          1.0     0.892243      0.096659      0.343199     Biso  1.000000 N
   N          1.0     0.224190      0.616673      0.879442     Biso  1.000000 N
   N          1.0     0.275824      0.116683      0.620575     Biso  1.000000 N
   N          1.0     0.775833      0.383328      0.120561     Biso  1.000000 N
   N          1.0     0.724199      0.883319      0.379428     Biso  1.000000 N
   O          1.0     0.911224      0.135426      0.010669     Biso  1.000000 O
   O          1.0     0.588783      0.635429      0.489326     Biso  1.000000 O
   O          1.0     0.088798      0.864575      0.989335     Biso  1.000000 O
   O          1.0     0.411240      0.364572      0.510678     Biso  1.000000 O
   N          1.0     0.203577      0.419043      0.038054     Biso  1.000000 N
   N          1.0     0.296442      0.919064      0.461951     Biso  1.000000 N
   N          1.0     0.796446      0.580958      0.961949     Biso  1.000000 N
   N          1.0     0.703580      0.080938      0.538053     Biso  1.000000 N
   H          1.0     0.165351      0.503830      0.107011     Biso  1.000000 H
   H          1.0     0.334672      0.003852      0.392995     Biso  1.000000 H
   H          1.0     0.834672      0.496171      0.892993     Biso  1.000000 H
   H          1.0     0.665351      0.996150      0.607009     Biso  1.000000 H
   H          1.0     0.890140      0.232004      0.061439     Biso  1.000000 H
   H          1.0     0.609884      0.732003      0.438554     Biso  1.000000 H
   H          1.0     0.109883      0.767998      0.938565     Biso  1.000000 H
   H          1.0     0.390139      0.267999      0.561450     Biso  1.000000 H
   H          1.0     0.930226      0.057807      0.088801     Biso  1.000000 H
   H          1.0     0.569781      0.557804      0.411197     Biso  1.000000 H
   H          1.0     0.069797      0.942195      0.911203     Biso  1.000000 H
   H          1.0     0.430241      0.442197      0.588807     Biso  1.000000 H
