#======================================================================

# CRYSTAL DATA

#----------------------------------------------------------------------

data_VESTA_phase_1


_chemical_name_common                  '# Quantum Espresso PWSCF output snapsh'
_cell_length_a                         5.96435
_cell_length_b                         8.77475
_cell_length_c                         9.61791
_cell_angle_alpha                      90.00110
_cell_angle_beta                       103.49750
_cell_angle_gamma                      90.00159
_space_group_name_H-M_alt              'P 1'
_space_group_IT_number                 1

loop_
_space_group_symop_operation_xyz
   'x, y, z'

loop_
   _atom_site_label
   _atom_site_occupancy
   _atom_site_fract_x
   _atom_site_fract_y
   _atom_site_fract_z
   _atom_site_adp_type
   _atom_site_B_iso_or_equiv
   _atom_site_type_symbol
   Cd         1.0     0.554235      0.171144      0.882845     Biso  1.000000 Cd
   Cd         1.0     0.945772      0.670992      0.617176     Biso  1.000000 Cd
   Cd         1.0     0.445793      0.828857      0.117159     Biso  1.000000 Cd
   Cd         1.0     0.054256      0.329009      0.382828     Biso  1.000000 Cd
   N          1.0     0.386521      0.173787      0.056443     Biso  1.000000 N
   N          1.0     0.113436      0.673846      0.443553     Biso  1.000000 N
   N          1.0     0.613507      0.826214      0.943561     Biso  1.000000 N
   N          1.0     0.886593      0.326155      0.556451     Biso  1.000000 N
   C          1.0     0.275489      0.286574      0.102652     Biso  1.000000 C
   C          1.0     0.224514      0.786619      0.397358     Biso  1.000000 C
   C          1.0     0.724538      0.713428      0.897352     Biso  1.000000 C
   C          1.0     0.775513      0.213380      0.602646     Biso  1.000000 C
   N          1.0     0.415195      0.505538      0.743369     Biso  1.000000 N
   N          1.0     0.084838      0.005487      0.756664     Biso  1.000000 N
   N          1.0     0.584833      0.494464      0.256635     Biso  1.000000 N
   N          1.0     0.915190      0.994514      0.243341     Biso  1.000000 N
   N          1.0     0.251385      0.255283      0.233425     Biso  1.000000 N
   N          1.0     0.248636      0.755319      0.266592     Biso  1.000000 N
   N          1.0     0.748643      0.744718      0.766580     Biso  1.000000 N
   N          1.0     0.751392      0.244682      0.733412     Biso  1.000000 N
   C          1.0     0.272238      0.474921      0.923523     Biso  1.000000 C
   C          1.0     0.227773      0.974919      0.576505     Biso  1.000000 C
   C          1.0     0.727790      0.525081      0.076482     Biso  1.000000 C
   C          1.0     0.772255      0.025083      0.423500     Biso  1.000000 C
   N          1.0     0.436330      0.074851      0.163457     Biso  1.000000 N
   N          1.0     0.063620      0.574918      0.336529     Biso  1.000000 N
   N          1.0     0.563698      0.925150      0.836547     Biso  1.000000 N
   N          1.0     0.936409      0.425084      0.663476     Biso  1.000000 N
   N          1.0     0.353204      0.122411      0.268435     Biso  1.000000 N
   N          1.0     0.146790      0.622458      0.231564     Biso  1.000000 N
   N          1.0     0.646824      0.877590      0.731570     Biso  1.000000 N
   N          1.0     0.853238      0.377543      0.768440     Biso  1.000000 N
   N          1.0     0.316944      0.632405      0.764193     Biso  1.000000 N
   N          1.0     0.183088      0.132365      0.735863     Biso  1.000000 N
   N          1.0     0.683084      0.367596      0.235811     Biso  1.000000 N
   N          1.0     0.816940      0.867636      0.264141     Biso  1.000000 N
   N          1.0     0.392567      0.404032      0.842665     Biso  1.000000 N
   N          1.0     0.107440      0.903998      0.657343     Biso  1.000000 N
   N          1.0     0.607461      0.595969      0.157340     Biso  1.000000 N
   N          1.0     0.892588      0.096004      0.342661     Biso  1.000000 N
   N          1.0     0.224260      0.617563      0.879107     Biso  1.000000 N
   N          1.0     0.275756      0.117555      0.620942     Biso  1.000000 N
   N          1.0     0.775767      0.382439      0.120897     Biso  1.000000 N
   N          1.0     0.724272      0.882446      0.379063     Biso  1.000000 N
   O          1.0     0.912286      0.135073      0.010578     Biso  1.000000 O
   O          1.0     0.587720      0.635084      0.489383     Biso  1.000000 O
   O          1.0     0.087742      0.864928      0.989426     Biso  1.000000 O
   O          1.0     0.412308      0.364917      0.510622     Biso  1.000000 O
   N          1.0     0.202963      0.418985      0.037432     Biso  1.000000 N
   N          1.0     0.297066      0.919016      0.462589     Biso  1.000000 N
   N          1.0     0.797065      0.581016      0.962572     Biso  1.000000 N
   N          1.0     0.702962      0.080985      0.537415     Biso  1.000000 N
   H          1.0     0.164835      0.503815      0.106839     Biso  1.000000 H
   H          1.0     0.335191      0.003851      0.393180     Biso  1.000000 H
   H          1.0     0.835193      0.496187      0.893165     Biso  1.000000 H
   H          1.0     0.664837      0.996150      0.606824     Biso  1.000000 H
   H          1.0     0.890965      0.231524      0.061904     Biso  1.000000 H
   H          1.0     0.609111      0.731532      0.438063     Biso  1.000000 H
   H          1.0     0.109063      0.768477      0.938100     Biso  1.000000 H
   H          1.0     0.390917      0.268469      0.561941     Biso  1.000000 H
   H          1.0     0.931365      0.056809      0.088639     Biso  1.000000 H
   H          1.0     0.568620      0.556808      0.411332     Biso  1.000000 H
   H          1.0     0.068662      0.943192      0.911365     Biso  1.000000 H
   H          1.0     0.431407      0.443194      0.588673     Biso  1.000000 H
