#======================================================================

# CRYSTAL DATA

#----------------------------------------------------------------------

data_VESTA_phase_1


_chemical_name_common                  '# Quantum Espresso PWSCF output snapsh'
_cell_length_a                         5.95846
_cell_length_b                         8.73669
_cell_length_c                         9.55626
_cell_angle_alpha                      90.00070
_cell_angle_beta                       103.81264
_cell_angle_gamma                      90.00156
_space_group_name_H-M_alt              'P 1'
_space_group_IT_number                 1

loop_
_space_group_symop_operation_xyz
   'x, y, z'

loop_
   _atom_site_label
   _atom_site_occupancy
   _atom_site_fract_x
   _atom_site_fract_y
   _atom_site_fract_z
   _atom_site_adp_type
   _atom_site_B_iso_or_equiv
   _atom_site_type_symbol
   Cd         1.0     0.556179      0.172746      0.883113     Biso  1.000000 Cd
   Cd         1.0     0.943847      0.672526      0.616928     Biso  1.000000 Cd
   Cd         1.0     0.443867      0.827255      0.116893     Biso  1.000000 Cd
   Cd         1.0     0.056199      0.327475      0.383078     Biso  1.000000 Cd
   N          1.0     0.386268      0.172893      0.055427     Biso  1.000000 N
   N          1.0     0.113668      0.672969      0.444565     Biso  1.000000 N
   N          1.0     0.613778      0.827109      0.944581     Biso  1.000000 N
   N          1.0     0.886379      0.327032      0.555441     Biso  1.000000 N
   C          1.0     0.274894      0.285866      0.101623     Biso  1.000000 C
   C          1.0     0.225123      0.785920      0.398398     Biso  1.000000 C
   C          1.0     0.725153      0.714135      0.898384     Biso  1.000000 C
   C          1.0     0.774922      0.214080      0.601609     Biso  1.000000 C
   N          1.0     0.416458      0.507981      0.742568     Biso  1.000000 N
   N          1.0     0.083595      0.007906      0.757478     Biso  1.000000 N
   N          1.0     0.583588      0.492021      0.257439     Biso  1.000000 N
   N          1.0     0.916451      0.992094      0.242529     Biso  1.000000 N
   N          1.0     0.251533      0.254341      0.233145     Biso  1.000000 N
   N          1.0     0.248510      0.754394      0.266881     Biso  1.000000 N
   N          1.0     0.748513      0.745660      0.766862     Biso  1.000000 N
   N          1.0     0.751536      0.245608      0.733126     Biso  1.000000 N
   C          1.0     0.272106      0.475848      0.922587     Biso  1.000000 C
   C          1.0     0.227920      0.975831      0.577452     Biso  1.000000 C
   C          1.0     0.727940      0.524153      0.077419     Biso  1.000000 C
   C          1.0     0.772125      0.024170      0.422556     Biso  1.000000 C
   N          1.0     0.437319      0.073760      0.163239     Biso  1.000000 N
   N          1.0     0.062596      0.573859      0.336734     Biso  1.000000 N
   N          1.0     0.562727      0.926241      0.836768     Biso  1.000000 N
   N          1.0     0.937450      0.426142      0.663273     Biso  1.000000 N
   N          1.0     0.353913      0.121192      0.268588     Biso  1.000000 N
   N          1.0     0.146075      0.621268      0.231406     Biso  1.000000 N
   N          1.0     0.646133      0.878809      0.731419     Biso  1.000000 N
   N          1.0     0.853971      0.378734      0.768601     Biso  1.000000 N
   N          1.0     0.318027      0.635089      0.763582     Biso  1.000000 N
   N          1.0     0.182034      0.135026      0.736492     Biso  1.000000 N
   N          1.0     0.682019      0.364913      0.236425     Biso  1.000000 N
   N          1.0     0.818012      0.864975      0.263515     Biso  1.000000 N
   N          1.0     0.393112      0.405408      0.841589     Biso  1.000000 N
   N          1.0     0.106898      0.905354      0.658425     Biso  1.000000 N
   N          1.0     0.606933      0.594594      0.158418     Biso  1.000000 N
   N          1.0     0.893149      0.094648      0.341582     Biso  1.000000 N
   N          1.0     0.224389      0.619304      0.878508     Biso  1.000000 N
   N          1.0     0.275649      0.119282      0.621558     Biso  1.000000 N
   N          1.0     0.775657      0.380697      0.121500     Biso  1.000000 N
   N          1.0     0.724397      0.880720      0.378449     Biso  1.000000 N
   O          1.0     0.914350      0.134358      0.010486     Biso  1.000000 O
   O          1.0     0.585675      0.634370      0.489458     Biso  1.000000 O
   O          1.0     0.085696      0.865644      0.989521     Biso  1.000000 O
   O          1.0     0.414370      0.365631      0.510549     Biso  1.000000 O
   N          1.0     0.201846      0.418829      0.036210     Biso  1.000000 N
   N          1.0     0.298209      0.918859      0.463828     Biso  1.000000 N
   N          1.0     0.798199      0.581172      0.963798     Biso  1.000000 N
   N          1.0     0.701838      0.081144      0.536179     Biso  1.000000 N
   H          1.0     0.163892      0.503695      0.106545     Biso  1.000000 H
   H          1.0     0.336157      0.003732      0.393488     Biso  1.000000 H
   H          1.0     0.836154      0.496306      0.893462     Biso  1.000000 H
   H          1.0     0.663889      0.996270      0.606520     Biso  1.000000 H
   H          1.0     0.892674      0.230547      0.062912     Biso  1.000000 H
   H          1.0     0.607449      0.730560      0.437045     Biso  1.000000 H
   H          1.0     0.107372      0.769455      0.937095     Biso  1.000000 H
   H          1.0     0.392597      0.269441      0.562962     Biso  1.000000 H
   H          1.0     0.933487      0.054793      0.088370     Biso  1.000000 H
   H          1.0     0.566509      0.554792      0.411590     Biso  1.000000 H
   H          1.0     0.066558      0.945208      0.911637     Biso  1.000000 H
   H          1.0     0.433537      0.445210      0.588418     Biso  1.000000 H
