#======================================================================

# CRYSTAL DATA

#----------------------------------------------------------------------

data_VESTA_phase_1


_chemical_name_common                  '# Quantum Espresso PWSCF output snapsh'
_cell_length_a                         5.95606
_cell_length_b                         8.64915
_cell_length_c                         9.40306
_cell_angle_alpha                      89.99931
_cell_angle_beta                       104.70458
_cell_angle_gamma                      89.99999
_space_group_name_H-M_alt              'P 1'
_space_group_IT_number                 1

loop_
_space_group_symop_operation_xyz
   'x, y, z'

loop_
   _atom_site_label
   _atom_site_occupancy
   _atom_site_fract_x
   _atom_site_fract_y
   _atom_site_fract_z
   _atom_site_adp_type
   _atom_site_B_iso_or_equiv
   _atom_site_type_symbol
   Cd         1.0     0.561930      0.178036      0.884163     Biso  1.000000 Cd
   Cd         1.0     0.938125      0.677981      0.615861     Biso  1.000000 Cd
   Cd         1.0     0.438123      0.821967      0.115845     Biso  1.000000 Cd
   Cd         1.0     0.061927      0.322021      0.384147     Biso  1.000000 Cd
   N          1.0     0.384961      0.170082      0.052290     Biso  1.000000 N
   N          1.0     0.115061      0.670092      0.447714     Biso  1.000000 N
   N          1.0     0.615092      0.829920      0.947718     Biso  1.000000 N
   N          1.0     0.884991      0.329910      0.552294     Biso  1.000000 N
   C          1.0     0.273755      0.283571      0.098887     Biso  1.000000 C
   C          1.0     0.226298      0.783574      0.401128     Biso  1.000000 C
   C          1.0     0.726298      0.716431      0.901121     Biso  1.000000 C
   C          1.0     0.773755      0.216428      0.598880     Biso  1.000000 C
   N          1.0     0.418316      0.514634      0.740712     Biso  1.000000 N
   N          1.0     0.081740      0.014618      0.759302     Biso  1.000000 N
   N          1.0     0.581737      0.485368      0.259295     Biso  1.000000 N
   N          1.0     0.918313      0.985385      0.240706     Biso  1.000000 N
   N          1.0     0.252651      0.251290      0.232394     Biso  1.000000 N
   N          1.0     0.247405      0.751302      0.267621     Biso  1.000000 N
   N          1.0     0.747402      0.748712      0.767614     Biso  1.000000 N
   N          1.0     0.752648      0.248700      0.732386     Biso  1.000000 N
   C          1.0     0.271573      0.478019      0.920416     Biso  1.000000 C
   C          1.0     0.228477      0.978009      0.579598     Biso  1.000000 C
   C          1.0     0.728480      0.521983      0.079592     Biso  1.000000 C
   C          1.0     0.771577      0.021993      0.420409     Biso  1.000000 C
   N          1.0     0.438589      0.070044      0.161866     Biso  1.000000 N
   N          1.0     0.061420      0.570069      0.338128     Biso  1.000000 N
   N          1.0     0.561464      0.929958      0.838142     Biso  1.000000 N
   N          1.0     0.938633      0.429933      0.661880     Biso  1.000000 N
   N          1.0     0.355180      0.117030      0.268343     Biso  1.000000 N
   N          1.0     0.144850      0.617053      0.231658     Biso  1.000000 N
   N          1.0     0.644872      0.882973      0.731665     Biso  1.000000 N
   N          1.0     0.855202      0.382949      0.768350     Biso  1.000000 N
   N          1.0     0.319729      0.642088      0.762627     Biso  1.000000 N
   N          1.0     0.180335      0.142071      0.737389     Biso  1.000000 N
   N          1.0     0.680324      0.357914      0.237380     Biso  1.000000 N
   N          1.0     0.819718      0.857931      0.262618     Biso  1.000000 N
   N          1.0     0.393685      0.409123      0.838784     Biso  1.000000 N
   N          1.0     0.106356      0.909109      0.661224     Biso  1.000000 N
   N          1.0     0.606367      0.590880      0.161223     Biso  1.000000 N
   N          1.0     0.893697      0.090893      0.338784     Biso  1.000000 N
   N          1.0     0.224447      0.623539      0.877583     Biso  1.000000 N
   N          1.0     0.275610      0.123526      0.622433     Biso  1.000000 N
   N          1.0     0.775606      0.376464      0.122425     Biso  1.000000 N
   N          1.0     0.724442      0.876476      0.377575     Biso  1.000000 N
   O          1.0     0.919231      0.132371      0.010872     Biso  1.000000 O
   O          1.0     0.580826      0.632371      0.489124     Biso  1.000000 O
   O          1.0     0.080822      0.867631      0.989136     Biso  1.000000 O
   O          1.0     0.419227      0.367632      0.510884     Biso  1.000000 O
   N          1.0     0.199497      0.417987      0.033204     Biso  1.000000 N
   N          1.0     0.300563      0.917981      0.466814     Biso  1.000000 N
   N          1.0     0.800556      0.582016      0.966803     Biso  1.000000 N
   N          1.0     0.699489      0.082022      0.533195     Biso  1.000000 N
   H          1.0     0.161872      0.502562      0.106124     Biso  1.000000 H
   H          1.0     0.338185      0.002558      0.393890     Biso  1.000000 H
   H          1.0     0.838181      0.497440      0.893884     Biso  1.000000 H
   H          1.0     0.661868      0.997444      0.606118     Biso  1.000000 H
   H          1.0     0.897827      0.227858      0.066100     Biso  1.000000 H
   H          1.0     0.602251      0.727863      0.433901     Biso  1.000000 H
   H          1.0     0.102226      0.772144      0.933908     Biso  1.000000 H
   H          1.0     0.397802      0.272140      0.566106     Biso  1.000000 H
   H          1.0     0.937730      0.049405      0.088041     Biso  1.000000 H
   H          1.0     0.562317      0.549405      0.411958     Biso  1.000000 H
   H          1.0     0.062323      0.950597      0.911967     Biso  1.000000 H
   H          1.0     0.437736      0.450597      0.588050     Biso  1.000000 H
