#======================================================================

# CRYSTAL DATA

#----------------------------------------------------------------------

data_VESTA_phase_1


_chemical_name_common                  '# Quantum Espresso PWSCF output snapsh'
_cell_length_a                         6.45737
_cell_length_b                         9.88569
_cell_length_c                         10.61512
_cell_angle_alpha                      90
_cell_angle_beta                       97.88159
_cell_angle_gamma                      90
_space_group_name_H-M_alt              'P 1'
_space_group_IT_number                 1

loop_
_space_group_symop_operation_xyz
   'x, y, z'

loop_
   _atom_site_label
   _atom_site_occupancy
   _atom_site_fract_x
   _atom_site_fract_y
   _atom_site_fract_z
   _atom_site_adp_type
   _atom_site_B_iso_or_equiv
   _atom_site_type_symbol
   Cd         1.0     0.535961      0.162878      0.875147     Biso  1.000000 Cd
   Cd         1.0     0.964038      0.662878      0.624853     Biso  1.000000 Cd
   Cd         1.0     0.464039      0.837122      0.124853     Biso  1.000000 Cd
   Cd         1.0     0.035961      0.337122      0.375147     Biso  1.000000 Cd
   N          1.0     0.368713      0.168458      0.058100     Biso  1.000000 N
   N          1.0     0.131287      0.668458      0.441900     Biso  1.000000 N
   N          1.0     0.631286      0.831542      0.941900     Biso  1.000000 N
   N          1.0     0.868713      0.331542      0.558100     Biso  1.000000 N
   C          1.0     0.296668      0.276402      0.116201     Biso  1.000000 C
   C          1.0     0.203332      0.776402      0.383799     Biso  1.000000 C
   C          1.0     0.703331      0.723598      0.883799     Biso  1.000000 C
   C          1.0     0.796667      0.223598      0.616201     Biso  1.000000 C
   N          1.0     0.321166      0.446247      0.749876     Biso  1.000000 N
   N          1.0     0.178833      0.946247      0.750124     Biso  1.000000 N
   N          1.0     0.678833      0.553753      0.250124     Biso  1.000000 N
   N          1.0     0.821166      0.053753      0.249876     Biso  1.000000 N
   N          1.0     0.242400      0.241076      0.229939     Biso  1.000000 N
   N          1.0     0.257599      0.741076      0.270061     Biso  1.000000 N
   N          1.0     0.757599      0.758924      0.770061     Biso  1.000000 N
   N          1.0     0.742400      0.258924      0.729939     Biso  1.000000 N
   C          1.0     0.279492      0.442697      0.946837     Biso  1.000000 C
   C          1.0     0.220507      0.942697      0.553163     Biso  1.000000 C
   C          1.0     0.720508      0.557303      0.053163     Biso  1.000000 C
   C          1.0     0.779492      0.057303      0.446837     Biso  1.000000 C
   N          1.0     0.357207      0.065176      0.140013     Biso  1.000000 N
   N          1.0     0.142793      0.565176      0.359987     Biso  1.000000 N
   N          1.0     0.642792      0.934824      0.859987     Biso  1.000000 N
   N          1.0     0.857207      0.434824      0.640013     Biso  1.000000 N
   N          1.0     0.284875      0.107830      0.241977     Biso  1.000000 N
   N          1.0     0.215124      0.607830      0.258023     Biso  1.000000 N
   N          1.0     0.715124      0.892170      0.758023     Biso  1.000000 N
   N          1.0     0.784875      0.392170      0.741977     Biso  1.000000 N
   N          1.0     0.233035      0.560219      0.776992     Biso  1.000000 N
   N          1.0     0.266964      0.060219      0.723008     Biso  1.000000 N
   N          1.0     0.766964      0.439781      0.223008     Biso  1.000000 N
   N          1.0     0.733036      0.939781      0.276992     Biso  1.000000 N
   N          1.0     0.355157      0.369707      0.856062     Biso  1.000000 N
   N          1.0     0.144841      0.869707      0.643938     Biso  1.000000 N
   N          1.0     0.644842      0.630293      0.143938     Biso  1.000000 N
   N          1.0     0.855158      0.130293      0.356062     Biso  1.000000 N
   N          1.0     0.203047      0.561809      0.900530     Biso  1.000000 N
   N          1.0     0.296952      0.061809      0.599470     Biso  1.000000 N
   N          1.0     0.796953      0.438191      0.099470     Biso  1.000000 N
   N          1.0     0.703047      0.938191      0.400530     Biso  1.000000 N
   O          1.0     0.847452      0.181192      1.015725     Biso  1.000000 O
   O          1.0     0.652547      0.681192      0.484275     Biso  1.000000 O
   O          1.0     0.152547      0.818808     -0.015725     Biso  1.000000 O
   O          1.0     0.347452      0.318808      0.515725     Biso  1.000000 O
   N          1.0     0.278845      0.405799      0.071135     Biso  1.000000 N
   N          1.0     0.221155      0.905799      0.428865     Biso  1.000000 N
   N          1.0     0.721155      0.594201      0.928865     Biso  1.000000 N
   N          1.0     0.778844      0.094201      0.571135     Biso  1.000000 N
   H          1.0     0.243425      0.480961      0.133733     Biso  1.000000 H
   H          1.0     0.256574      0.980961      0.366267     Biso  1.000000 H
   H          1.0     0.756574      0.519039      0.866267     Biso  1.000000 H
   H          1.0     0.743425      0.019039      0.633733     Biso  1.000000 H
   H          1.0     0.845801      0.277595      0.044692     Biso  1.000000 H
   H          1.0     0.654198      0.777595      0.455308     Biso  1.000000 H
   H          1.0     0.154198      0.722405      0.955308     Biso  1.000000 H
   H          1.0     0.345801      0.222405      0.544692     Biso  1.000000 H
   H          1.0     0.842559      0.127186      0.094531     Biso  1.000000 H
   H          1.0     0.657440      0.627186      0.405469     Biso  1.000000 H
   H          1.0     0.157440      0.872814      0.905469     Biso  1.000000 H
   H          1.0     0.342559      0.372814      0.594531     Biso  1.000000 H
