#======================================================================

# CRYSTAL DATA

#----------------------------------------------------------------------

data_VESTA_phase_1


_chemical_name_common                  '# Quantum Espresso PWSCF output snapsh'
_cell_length_a                         6.13404
_cell_length_b                         9.53683
_cell_length_c                         10.42314
_cell_angle_alpha                      90
_cell_angle_beta                       99.93502
_cell_angle_gamma                      90
_space_group_name_H-M_alt              'P 1'
_space_group_IT_number                 1

loop_
_space_group_symop_operation_xyz
   'x, y, z'

loop_
   _atom_site_label
   _atom_site_occupancy
   _atom_site_fract_x
   _atom_site_fract_y
   _atom_site_fract_z
   _atom_site_adp_type
   _atom_site_B_iso_or_equiv
   _atom_site_type_symbol
   Cd         1.0     0.540430      0.163705      0.879648     Biso  1.000000 Cd
   Cd         1.0     0.959572      0.663705      0.620352     Biso  1.000000 Cd
   Cd         1.0     0.459570      0.836295      0.120352     Biso  1.000000 Cd
   Cd         1.0     0.040428      0.336295      0.379649     Biso  1.000000 Cd
   N          1.0     0.379356      0.174618      0.061206     Biso  1.000000 N
   N          1.0     0.120641      0.674618      0.438795     Biso  1.000000 N
   N          1.0     0.620643      0.825382      0.938795     Biso  1.000000 N
   N          1.0     0.879358      0.325382      0.561206     Biso  1.000000 N
   C          1.0     0.296259      0.285085      0.116290     Biso  1.000000 C
   C          1.0     0.203741      0.785086      0.383711     Biso  1.000000 C
   C          1.0     0.703740      0.714915      0.883710     Biso  1.000000 C
   C          1.0     0.796259      0.214914      0.616290     Biso  1.000000 C
   N          1.0     0.360176      0.466511      0.751205     Biso  1.000000 N
   N          1.0     0.139824      0.966511      0.748794     Biso  1.000000 N
   N          1.0     0.639824      0.533489      0.248796     Biso  1.000000 N
   N          1.0     0.860175      0.033489      0.251206     Biso  1.000000 N
   N          1.0     0.257503      0.251643      0.235686     Biso  1.000000 N
   N          1.0     0.242494      0.751643      0.264315     Biso  1.000000 N
   N          1.0     0.742495      0.748357      0.764315     Biso  1.000000 N
   N          1.0     0.757505      0.248357      0.735686     Biso  1.000000 N
   C          1.0     0.277965      0.455354      0.942107     Biso  1.000000 C
   C          1.0     0.222036      0.955354      0.557894     Biso  1.000000 C
   C          1.0     0.722033      0.544646      0.057894     Biso  1.000000 C
   C          1.0     0.777964      0.044646      0.442108     Biso  1.000000 C
   N          1.0     0.390097      0.071806      0.150181     Biso  1.000000 N
   N          1.0     0.109902      0.571806      0.349820     Biso  1.000000 N
   N          1.0     0.609903      0.928194      0.849819     Biso  1.000000 N
   N          1.0     0.890098      0.428194      0.650181     Biso  1.000000 N
   N          1.0     0.320025      0.117112      0.253745     Biso  1.000000 N
   N          1.0     0.179974      0.617112      0.246256     Biso  1.000000 N
   N          1.0     0.679975      0.882888      0.746257     Biso  1.000000 N
   N          1.0     0.820026      0.382888      0.753745     Biso  1.000000 N
   N          1.0     0.271431      0.586202      0.775834     Biso  1.000000 N
   N          1.0     0.228569      0.086202      0.724167     Biso  1.000000 N
   N          1.0     0.728568      0.413798      0.224167     Biso  1.000000 N
   N          1.0     0.771430      0.913797      0.275834     Biso  1.000000 N
   N          1.0     0.368686      0.381278      0.855028     Biso  1.000000 N
   N          1.0     0.131313      0.881277      0.644974     Biso  1.000000 N
   N          1.0     0.631312      0.618723      0.144975     Biso  1.000000 N
   N          1.0     0.868686      0.118723      0.355027     Biso  1.000000 N
   N          1.0     0.217152      0.583406      0.896006     Biso  1.000000 N
   N          1.0     0.282846      0.083406      0.603995     Biso  1.000000 N
   N          1.0     0.782847      0.416594      0.103996     Biso  1.000000 N
   N          1.0     0.717151      0.916594      0.396006     Biso  1.000000 N
   O          1.0     0.879101      0.159839      0.017959     Biso  1.000000 O
   O          1.0     0.620898      0.659839      0.482043     Biso  1.000000 O
   O          1.0     0.120898      0.840161      0.982042     Biso  1.000000 O
   O          1.0     0.379102      0.340161      0.517959     Biso  1.000000 O
   N          1.0     0.251854      0.414281      0.063677     Biso  1.000000 N
   N          1.0     0.248144      0.914280      0.436325     Biso  1.000000 N
   N          1.0     0.748145      0.585719      0.936324     Biso  1.000000 N
   N          1.0     0.751855      0.085720      0.563676     Biso  1.000000 N
   H          1.0     0.212363      0.492951      0.126025     Biso  1.000000 H
   H          1.0     0.287636      0.992952      0.373976     Biso  1.000000 H
   H          1.0     0.787637      0.507048      0.873976     Biso  1.000000 H
   H          1.0     0.712363      0.007048      0.626025     Biso  1.000000 H
   H          1.0     0.868303      0.257526      0.051731     Biso  1.000000 H
   H          1.0     0.631694      0.757526      0.448270     Biso  1.000000 H
   H          1.0     0.131695      0.742474      0.948270     Biso  1.000000 H
   H          1.0     0.368304      0.242474      0.551731     Biso  1.000000 H
   H          1.0     0.880059      0.100140      0.096848     Biso  1.000000 H
   H          1.0     0.619940      0.600140      0.403153     Biso  1.000000 H
   H          1.0     0.119940      0.899860      0.903152     Biso  1.000000 H
   H          1.0     0.380060      0.399860      0.596849     Biso  1.000000 H
