#======================================================================

# CRYSTAL DATA

#----------------------------------------------------------------------

data_VESTA_phase_1


_chemical_name_common                  '# Quantum Espresso PWSCF output snapsh'
_cell_length_a                         6.23469
_cell_length_b                         9.71241
_cell_length_c                         10.52258
_cell_angle_alpha                      90
_cell_angle_beta                       99.16839
_cell_angle_gamma                      90.00001
_space_group_name_H-M_alt              'P 1'
_space_group_IT_number                 1

loop_
_space_group_symop_operation_xyz
   'x, y, z'

loop_
   _atom_site_label
   _atom_site_occupancy
   _atom_site_fract_x
   _atom_site_fract_y
   _atom_site_fract_z
   _atom_site_adp_type
   _atom_site_B_iso_or_equiv
   _atom_site_type_symbol
   Cd         1.0     0.538947      0.163265      0.878125     Biso  1.000000 Cd
   Cd         1.0     0.961050      0.663265      0.621877     Biso  1.000000 Cd
   Cd         1.0     0.461050      0.836735      0.121876     Biso  1.000000 Cd
   Cd         1.0     0.038947      0.336735      0.378125     Biso  1.000000 Cd
   N          1.0     0.374677      0.172235      0.060051     Biso  1.000000 N
   N          1.0     0.125320      0.672235      0.439951     Biso  1.000000 N
   N          1.0     0.625320      0.827765      0.939951     Biso  1.000000 N
   N          1.0     0.874677      0.327765      0.560051     Biso  1.000000 N
   C          1.0     0.298523      0.281607      0.117276     Biso  1.000000 C
   C          1.0     0.201475      0.781608      0.382726     Biso  1.000000 C
   C          1.0     0.701474      0.718393      0.882725     Biso  1.000000 C
   C          1.0     0.798522      0.218392      0.617276     Biso  1.000000 C
   N          1.0     0.342754      0.457337      0.751365     Biso  1.000000 N
   N          1.0     0.157242      0.957337      0.748637     Biso  1.000000 N
   N          1.0     0.657243      0.542663      0.248637     Biso  1.000000 N
   N          1.0     0.842754      0.042663      0.251365     Biso  1.000000 N
   N          1.0     0.253599      0.247092      0.234188     Biso  1.000000 N
   N          1.0     0.246397      0.747092      0.265814     Biso  1.000000 N
   N          1.0     0.746397      0.752908      0.765814     Biso  1.000000 N
   N          1.0     0.753599      0.252908      0.734188     Biso  1.000000 N
   C          1.0     0.279416      0.449728      0.945344     Biso  1.000000 C
   C          1.0     0.220582      0.949728      0.554658     Biso  1.000000 C
   C          1.0     0.720581      0.550272      0.054658     Biso  1.000000 C
   C          1.0     0.779415      0.050272      0.445345     Biso  1.000000 C
   N          1.0     0.374703      0.068927      0.145338     Biso  1.000000 N
   N          1.0     0.125295      0.568927      0.354663     Biso  1.000000 N
   N          1.0     0.625294      0.931073      0.854663     Biso  1.000000 N
   N          1.0     0.874702      0.431073      0.645338     Biso  1.000000 N
   N          1.0     0.305420      0.112911      0.248663     Biso  1.000000 N
   N          1.0     0.194577      0.612911      0.251339     Biso  1.000000 N
   N          1.0     0.694577      0.887089      0.751339     Biso  1.000000 N
   N          1.0     0.805420      0.387089      0.748663     Biso  1.000000 N
   N          1.0     0.254729      0.574521      0.777085     Biso  1.000000 N
   N          1.0     0.245267      0.074521      0.722917     Biso  1.000000 N
   N          1.0     0.745268      0.425479      0.222917     Biso  1.000000 N
   N          1.0     0.754729      0.925478      0.277085     Biso  1.000000 N
   N          1.0     0.362794      0.376016      0.856456     Biso  1.000000 N
   N          1.0     0.137202      0.876015      0.643546     Biso  1.000000 N
   N          1.0     0.637202      0.623985      0.143546     Biso  1.000000 N
   N          1.0     0.862795      0.123985      0.356456     Biso  1.000000 N
   N          1.0     0.211630      0.573745      0.898896     Biso  1.000000 N
   N          1.0     0.288366      0.073745      0.601106     Biso  1.000000 N
   N          1.0     0.788367      0.426255      0.101106     Biso  1.000000 N
   N          1.0     0.711630      0.926255      0.398896     Biso  1.000000 N
   O          1.0     0.867609      0.169391      0.018361     Biso  1.000000 O
   O          1.0     0.632388      0.669391      0.481641     Biso  1.000000 O
   O          1.0     0.132388      0.830609      0.981641     Biso  1.000000 O
   O          1.0     0.367609      0.330609      0.518361     Biso  1.000000 O
   N          1.0     0.266137      0.410939      0.068498     Biso  1.000000 N
   N          1.0     0.233859      0.910938      0.431504     Biso  1.000000 N
   N          1.0     0.733859      0.589061      0.931504     Biso  1.000000 N
   N          1.0     0.766138      0.089062      0.568497     Biso  1.000000 N
   H          1.0     0.227910      0.487857      0.130785     Biso  1.000000 H
   H          1.0     0.272087      0.987858      0.369217     Biso  1.000000 H
   H          1.0     0.772087      0.512142      0.869217     Biso  1.000000 H
   H          1.0     0.727910      0.012142      0.630785     Biso  1.000000 H
   H          1.0     0.860011      0.266612      0.049230     Biso  1.000000 H
   H          1.0     0.639985      0.766612      0.450772     Biso  1.000000 H
   H          1.0     0.139985      0.733388      0.950772     Biso  1.000000 H
   H          1.0     0.360011      0.233388      0.549230     Biso  1.000000 H
   H          1.0     0.864626      0.112770      0.097223     Biso  1.000000 H
   H          1.0     0.635371      0.612770      0.402778     Biso  1.000000 H
   H          1.0     0.135371      0.887230      0.902778     Biso  1.000000 H
   H          1.0     0.364626      0.387230      0.597224     Biso  1.000000 H
