#======================================================================

# CRYSTAL DATA

#----------------------------------------------------------------------

data_VESTA_phase_1


_chemical_name_common                  '# Quantum Espresso PWSCF output snapsh'
_cell_length_a                         6.00863
_cell_length_b                         8.92425
_cell_length_c                         9.84512
_cell_angle_alpha                      90
_cell_angle_beta                       102.48744
_cell_angle_gamma                      89.99998
_space_group_name_H-M_alt              'P 1'
_space_group_IT_number                 1

loop_
_space_group_symop_operation_xyz
   'x, y, z'

loop_
   _atom_site_label
   _atom_site_occupancy
   _atom_site_fract_x
   _atom_site_fract_y
   _atom_site_fract_z
   _atom_site_adp_type
   _atom_site_B_iso_or_equiv
   _atom_site_type_symbol
   Cd         1.0     0.548637      0.167565      0.882109     Biso  1.000000 Cd
   Cd         1.0     0.951385      0.667565      0.617895     Biso  1.000000 Cd
   Cd         1.0     0.451385      0.832435      0.117895     Biso  1.000000 Cd
   Cd         1.0     0.048637      0.332435      0.382109     Biso  1.000000 Cd
   N          1.0     0.386613      0.176119      0.059168     Biso  1.000000 N
   N          1.0     0.113408      0.676118      0.440836     Biso  1.000000 N
   N          1.0     0.613408      0.823882      0.940836     Biso  1.000000 N
   N          1.0     0.886614      0.323883      0.559168     Biso  1.000000 N
   C          1.0     0.278455      0.288266      0.106058     Biso  1.000000 C
   C          1.0     0.221567      0.788268      0.393947     Biso  1.000000 C
   C          1.0     0.721568      0.711732      0.893946     Biso  1.000000 C
   C          1.0     0.778453      0.211731      0.606056     Biso  1.000000 C
   N          1.0     0.408164      0.497553      0.746325     Biso  1.000000 N
   N          1.0     0.091857      0.997553      0.753678     Biso  1.000000 N
   N          1.0     0.591857      0.502446      0.253678     Biso  1.000000 N
   N          1.0     0.908164      0.002447      0.246325     Biso  1.000000 N
   N          1.0     0.251808      0.257312      0.234075     Biso  1.000000 N
   N          1.0     0.248214      0.757312      0.265927     Biso  1.000000 N
   N          1.0     0.748213      0.742688      0.765928     Biso  1.000000 N
   N          1.0     0.751808      0.242688      0.734077     Biso  1.000000 N
   C          1.0     0.272680      0.471508      0.927244     Biso  1.000000 C
   C          1.0     0.227341      0.971507      0.572759     Biso  1.000000 C
   C          1.0     0.727342      0.528492      0.072759     Biso  1.000000 C
   C          1.0     0.772680      0.028493      0.427245     Biso  1.000000 C
   N          1.0     0.430764      0.077149      0.162801     Biso  1.000000 N
   N          1.0     0.069257      0.577149      0.337203     Biso  1.000000 N
   N          1.0     0.569257      0.922852      0.837203     Biso  1.000000 N
   N          1.0     0.930764      0.422851      0.662801     Biso  1.000000 N
   N          1.0     0.349442      0.124799      0.266625     Biso  1.000000 N
   N          1.0     0.150579      0.624798      0.233378     Biso  1.000000 N
   N          1.0     0.650580      0.875201      0.733378     Biso  1.000000 N
   N          1.0     0.849442      0.375202      0.766625     Biso  1.000000 N
   N          1.0     0.311044      0.623160      0.767100     Biso  1.000000 N
   N          1.0     0.188977      0.123160      0.732904     Biso  1.000000 N
   N          1.0     0.688978      0.376840      0.232904     Biso  1.000000 N
   N          1.0     0.811044      0.876840      0.267100     Biso  1.000000 N
   N          1.0     0.389342      0.399593      0.846357     Biso  1.000000 N
   N          1.0     0.110679      0.899593      0.653647     Biso  1.000000 N
   N          1.0     0.610679      0.600407      0.153647     Biso  1.000000 N
   N          1.0     0.889343      0.100407      0.346357     Biso  1.000000 N
   N          1.0     0.223414      0.611192      0.882157     Biso  1.000000 N
   N          1.0     0.276608      0.111193      0.617846     Biso  1.000000 N
   N          1.0     0.776607      0.388808      0.117846     Biso  1.000000 N
   N          1.0     0.723414      0.888808      0.382157     Biso  1.000000 N
   O          1.0     0.904448      0.137475      0.011388     Biso  1.000000 O
   O          1.0     0.595574      0.637475      0.488616     Biso  1.000000 O
   O          1.0     0.095574      0.862525      0.988616     Biso  1.000000 O
   O          1.0     0.404448      0.362525      0.511388     Biso  1.000000 O
   N          1.0     0.208413      0.418988      0.042113     Biso  1.000000 N
   N          1.0     0.291608      0.918987      0.457890     Biso  1.000000 N
   N          1.0     0.791608      0.581014      0.957890     Biso  1.000000 N
   N          1.0     0.708414      0.081014      0.542114     Biso  1.000000 N
   H          1.0     0.169331      0.503033      0.108597     Biso  1.000000 H
   H          1.0     0.330690      0.003033      0.391406     Biso  1.000000 H
   H          1.0     0.830690      0.496967      0.891406     Biso  1.000000 H
   H          1.0     0.669331      0.996967      0.608597     Biso  1.000000 H
   H          1.0     0.885977      0.234662      0.058883     Biso  1.000000 H
   H          1.0     0.614045      0.734662      0.441120     Biso  1.000000 H
   H          1.0     0.114045      0.765338      0.941120     Biso  1.000000 H
   H          1.0     0.385977      0.265338      0.558883     Biso  1.000000 H
   H          1.0     0.921980      0.063585      0.089622     Biso  1.000000 H
   H          1.0     0.578042      0.563585      0.410382     Biso  1.000000 H
   H          1.0     0.078041      0.936415      0.910382     Biso  1.000000 H
   H          1.0     0.421980      0.436415      0.589622     Biso  1.000000 H
