#======================================================================

# CRYSTAL DATA

#----------------------------------------------------------------------

data_VESTA_phase_1


_chemical_name_common                  '# Quantum Espresso PWSCF output snapsh'
_cell_length_a                         6.05538
_cell_length_b                         9.06884
_cell_length_c                         10.04239
_cell_angle_alpha                      90
_cell_angle_beta                       101.70300
_cell_angle_gamma                      90
_space_group_name_H-M_alt              'P 1'
_space_group_IT_number                 1

loop_
_space_group_symop_operation_xyz
   'x, y, z'

loop_
   _atom_site_label
   _atom_site_occupancy
   _atom_site_fract_x
   _atom_site_fract_y
   _atom_site_fract_z
   _atom_site_adp_type
   _atom_site_B_iso_or_equiv
   _atom_site_type_symbol
   Cd         1.0     0.545581      0.166075      0.881840     Biso  1.000000 Cd
   Cd         1.0     0.954409      0.666079      0.618214     Biso  1.000000 Cd
   Cd         1.0     0.454409      0.833921      0.118213     Biso  1.000000 Cd
   Cd         1.0     0.045582      0.333925      0.381839     Biso  1.000000 Cd
   N          1.0     0.386175      0.177211      0.060777     Biso  1.000000 N
   N          1.0     0.113805      0.677213      0.439253     Biso  1.000000 N
   N          1.0     0.613804      0.822787      0.939254     Biso  1.000000 N
   N          1.0     0.886175      0.322790      0.560778     Biso  1.000000 N
   C          1.0     0.282439      0.288932      0.108967     Biso  1.000000 C
   C          1.0     0.217572      0.788916      0.391055     Biso  1.000000 C
   C          1.0     0.717571      0.711084      0.891056     Biso  1.000000 C
   C          1.0     0.782438      0.211069      0.608968     Biso  1.000000 C
   N          1.0     0.398667      0.490454      0.748490     Biso  1.000000 N
   N          1.0     0.101382      0.990471      0.751508     Biso  1.000000 N
   N          1.0     0.601383      0.509529      0.251507     Biso  1.000000 N
   N          1.0     0.898668      0.009546      0.248489     Biso  1.000000 N
   N          1.0     0.253173      0.257685      0.234453     Biso  1.000000 N
   N          1.0     0.246844      0.757649      0.265577     Biso  1.000000 N
   N          1.0     0.746843      0.742351      0.765578     Biso  1.000000 N
   N          1.0     0.753172      0.242315      0.734454     Biso  1.000000 N
   C          1.0     0.273475      0.468211      0.930960     Biso  1.000000 C
   C          1.0     0.226559      0.968216      0.569035     Biso  1.000000 C
   C          1.0     0.726561      0.531784      0.069034     Biso  1.000000 C
   C          1.0     0.773476      0.031790      0.430960     Biso  1.000000 C
   N          1.0     0.423353      0.077396      0.160761     Biso  1.000000 N
   N          1.0     0.076640      0.577384      0.339279     Biso  1.000000 N
   N          1.0     0.576639      0.922616      0.839279     Biso  1.000000 N
   N          1.0     0.923352      0.422604      0.660762     Biso  1.000000 N
   N          1.0     0.344286      0.124757      0.263837     Biso  1.000000 N
   N          1.0     0.155730      0.624720      0.236204     Biso  1.000000 N
   N          1.0     0.655730      0.875280      0.736205     Biso  1.000000 N
   N          1.0     0.844286      0.375244      0.763838     Biso  1.000000 N
   N          1.0     0.303124      0.614670      0.769811     Biso  1.000000 N
   N          1.0     0.196914      0.114688      0.730176     Biso  1.000000 N
   N          1.0     0.696915      0.385312      0.230175     Biso  1.000000 N
   N          1.0     0.803125      0.885330      0.269810     Biso  1.000000 N
   N          1.0     0.385108      0.395627      0.849260     Biso  1.000000 N
   N          1.0     0.114941      0.895635      0.650746     Biso  1.000000 N
   N          1.0     0.614941      0.604366      0.150745     Biso  1.000000 N
   N          1.0     0.885109      0.104373      0.349259     Biso  1.000000 N
   N          1.0     0.222278      0.605121      0.885557     Biso  1.000000 N
   N          1.0     0.277753      0.105131      0.614427     Biso  1.000000 N
   N          1.0     0.777753      0.394869      0.114426     Biso  1.000000 N
   N          1.0     0.722279      0.894879      0.385556     Biso  1.000000 N
   O          1.0     0.898159      0.140460      0.012595     Biso  1.000000 O
   O          1.0     0.601891      0.640470      0.487379     Biso  1.000000 O
   O          1.0     0.101890      0.859530      0.987380     Biso  1.000000 O
   O          1.0     0.398158      0.359540      0.512596     Biso  1.000000 O
   N          1.0     0.216123      0.418636      0.047029     Biso  1.000000 N
   N          1.0     0.283902      0.918629      0.452969     Biso  1.000000 N
   N          1.0     0.783902      0.581371      0.952970     Biso  1.000000 N
   N          1.0     0.716122      0.081364      0.547030     Biso  1.000000 N
   H          1.0     0.176180      0.501490      0.111530     Biso  1.000000 H
   H          1.0     0.323843      0.001476      0.388457     Biso  1.000000 H
   H          1.0     0.823842      0.498524      0.888458     Biso  1.000000 H
   H          1.0     0.676179      0.998510      0.611531     Biso  1.000000 H
   H          1.0     0.882631      0.238043      0.056678     Biso  1.000000 H
   H          1.0     0.617450      0.738045      0.443287     Biso  1.000000 H
   H          1.0     0.117449      0.761955      0.943288     Biso  1.000000 H
   H          1.0     0.382631      0.261957      0.556679     Biso  1.000000 H
   H          1.0     0.912569      0.070258      0.090757     Biso  1.000000 H
   H          1.0     0.587517      0.570260      0.409221     Biso  1.000000 H
   H          1.0     0.087516      0.929740      0.909221     Biso  1.000000 H
   H          1.0     0.412567      0.429742      0.590758     Biso  1.000000 H
