#======================================================================

# CRYSTAL DATA

#----------------------------------------------------------------------

data_VESTA_phase_1


_chemical_name_common                  '# Quantum Espresso PWSCF output snapsh'
_cell_length_a                         6.02698
_cell_length_b                         8.97511
_cell_length_c                         9.91828
_cell_angle_alpha                      90
_cell_angle_beta                       102.19899
_cell_angle_gamma                      90
_space_group_name_H-M_alt              'P 1'
_space_group_IT_number                 1

loop_
_space_group_symop_operation_xyz
   'x, y, z'

loop_
   _atom_site_label
   _atom_site_occupancy
   _atom_site_fract_x
   _atom_site_fract_y
   _atom_site_fract_z
   _atom_site_adp_type
   _atom_site_B_iso_or_equiv
   _atom_site_type_symbol
   Cd         1.0     0.547438      0.166966      0.882003     Biso  1.000000 Cd
   Cd         1.0     0.952598      0.666965      0.617996     Biso  1.000000 Cd
   Cd         1.0     0.452598      0.833035      0.117996     Biso  1.000000 Cd
   Cd         1.0     0.047438      0.333034      0.382003     Biso  1.000000 Cd
   N          1.0     0.386554      0.176616      0.059826     Biso  1.000000 N
   N          1.0     0.113484      0.676615      0.440175     Biso  1.000000 N
   N          1.0     0.613484      0.823385      0.940176     Biso  1.000000 N
   N          1.0     0.886554      0.323385      0.559826     Biso  1.000000 N
   C          1.0     0.279782      0.288586      0.107103     Biso  1.000000 C
   C          1.0     0.220250      0.788587      0.392899     Biso  1.000000 C
   C          1.0     0.720250      0.711413      0.892899     Biso  1.000000 C
   C          1.0     0.779781      0.211415      0.607104     Biso  1.000000 C
   N          1.0     0.405022      0.495072      0.747185     Biso  1.000000 N
   N          1.0     0.095005      0.995069      0.752821     Biso  1.000000 N
   N          1.0     0.595006      0.504931      0.252821     Biso  1.000000 N
   N          1.0     0.905021      0.004928      0.247185     Biso  1.000000 N
   N          1.0     0.252216      0.257560      0.234195     Biso  1.000000 N
   N          1.0     0.247818      0.757564      0.265806     Biso  1.000000 N
   N          1.0     0.747818      0.742436      0.765807     Biso  1.000000 N
   N          1.0     0.752216      0.242440      0.734197     Biso  1.000000 N
   C          1.0     0.272893      0.470365      0.928545     Biso  1.000000 C
   C          1.0     0.227134      0.970365      0.571461     Biso  1.000000 C
   C          1.0     0.727136      0.529635      0.071459     Biso  1.000000 C
   C          1.0     0.772894      0.029636      0.428545     Biso  1.000000 C
   N          1.0     0.428359      0.077390      0.162187     Biso  1.000000 N
   N          1.0     0.071681      0.577390      0.337815     Biso  1.000000 N
   N          1.0     0.571680      0.922610      0.837814     Biso  1.000000 N
   N          1.0     0.928359      0.422610      0.662188     Biso  1.000000 N
   N          1.0     0.347761      0.124952      0.265686     Biso  1.000000 N
   N          1.0     0.152274      0.624954      0.234315     Biso  1.000000 N
   N          1.0     0.652274      0.875046      0.734316     Biso  1.000000 N
   N          1.0     0.847762      0.375049      0.765686     Biso  1.000000 N
   N          1.0     0.308399      0.620186      0.768103     Biso  1.000000 N
   N          1.0     0.191630      0.120183      0.731906     Biso  1.000000 N
   N          1.0     0.691631      0.379817      0.231905     Biso  1.000000 N
   N          1.0     0.808399      0.879814      0.268102     Biso  1.000000 N
   N          1.0     0.387929      0.398219      0.847457     Biso  1.000000 N
   N          1.0     0.112096      0.898219      0.652547     Biso  1.000000 N
   N          1.0     0.612096      0.601782      0.152547     Biso  1.000000 N
   N          1.0     0.887929      0.101780      0.347456     Biso  1.000000 N
   N          1.0     0.223003      0.609072      0.883334     Biso  1.000000 N
   N          1.0     0.277028      0.109070      0.616676     Biso  1.000000 N
   N          1.0     0.777028      0.390930      0.116675     Biso  1.000000 N
   N          1.0     0.723003      0.890928      0.383333     Biso  1.000000 N
   O          1.0     0.902138      0.138387      0.011777     Biso  1.000000 O
   O          1.0     0.597892      0.638385      0.488232     Biso  1.000000 O
   O          1.0     0.097891      0.861615      0.988233     Biso  1.000000 O
   O          1.0     0.402138      0.361613      0.511778     Biso  1.000000 O
   N          1.0     0.210837      0.418873      0.043776     Biso  1.000000 N
   N          1.0     0.289190      0.918874      0.456228     Biso  1.000000 N
   N          1.0     0.789192      0.581126      0.956228     Biso  1.000000 N
   N          1.0     0.710837      0.081127      0.543777     Biso  1.000000 N
   H          1.0     0.171402      0.502516      0.109466     Biso  1.000000 H
   H          1.0     0.328627      0.002518      0.390538     Biso  1.000000 H
   H          1.0     0.828627      0.497482      0.890540     Biso  1.000000 H
   H          1.0     0.671402      0.997484      0.609467     Biso  1.000000 H
   H          1.0     0.884809      0.235731      0.058080     Biso  1.000000 H
   H          1.0     0.615215      0.735730      0.441930     Biso  1.000000 H
   H          1.0     0.115215      0.764270      0.941931     Biso  1.000000 H
   H          1.0     0.384809      0.264269      0.558081     Biso  1.000000 H
   H          1.0     0.918678      0.065801      0.089955     Biso  1.000000 H
   H          1.0     0.581347      0.565802      0.410053     Biso  1.000000 H
   H          1.0     0.081346      0.934198      0.910052     Biso  1.000000 H
   H          1.0     0.418676      0.434199      0.589954     Biso  1.000000 H
