#======================================================================

# CRYSTAL DATA

#----------------------------------------------------------------------

data_VESTA_phase_1


_chemical_name_common                  '# Quantum Espresso PWSCF output snapsh'
_cell_length_a                         6.04595
_cell_length_b                         9.03427
_cell_length_c                         9.99872
_cell_angle_alpha                      90
_cell_angle_beta                       101.87691
_cell_angle_gamma                      90
_space_group_name_H-M_alt              'P 1'
_space_group_IT_number                 1

loop_
_space_group_symop_operation_xyz
   'x, y, z'

loop_
   _atom_site_label
   _atom_site_occupancy
   _atom_site_fract_x
   _atom_site_fract_y
   _atom_site_fract_z
   _atom_site_adp_type
   _atom_site_B_iso_or_equiv
   _atom_site_type_symbol
   Cd         1.0     0.546206      0.166367      0.881903     Biso  1.000000 Cd
   Cd         1.0     0.953798      0.666370      0.618132     Biso  1.000000 Cd
   Cd         1.0     0.453798      0.833630      0.118132     Biso  1.000000 Cd
   Cd         1.0     0.046206      0.333633      0.381903     Biso  1.000000 Cd
   N          1.0     0.386346      0.177047      0.060470     Biso  1.000000 N
   N          1.0     0.113653      0.677047      0.439551     Biso  1.000000 N
   N          1.0     0.613652      0.822953      0.939552     Biso  1.000000 N
   N          1.0     0.886346      0.322954      0.560470     Biso  1.000000 N
   C          1.0     0.281423      0.288851      0.108293     Biso  1.000000 C
   C          1.0     0.218596      0.788840      0.391724     Biso  1.000000 C
   C          1.0     0.718596      0.711160      0.891724     Biso  1.000000 C
   C          1.0     0.781422      0.211150      0.608293     Biso  1.000000 C
   N          1.0     0.401091      0.492166      0.748053     Biso  1.000000 N
   N          1.0     0.098952      0.992178      0.751946     Biso  1.000000 N
   N          1.0     0.598953      0.507822      0.251946     Biso  1.000000 N
   N          1.0     0.901091      0.007834      0.248053     Biso  1.000000 N
   N          1.0     0.252786      0.257702      0.234353     Biso  1.000000 N
   N          1.0     0.247234      0.757679      0.265667     Biso  1.000000 N
   N          1.0     0.747233      0.742321      0.765667     Biso  1.000000 N
   N          1.0     0.752786      0.242298      0.734354     Biso  1.000000 N
   C          1.0     0.273232      0.469019      0.930070     Biso  1.000000 C
   C          1.0     0.226801      0.969021      0.569929     Biso  1.000000 C
   C          1.0     0.726803      0.530979      0.069928     Biso  1.000000 C
   C          1.0     0.773233      0.030982      0.430070     Biso  1.000000 C
   N          1.0     0.425283      0.077469      0.161334     Biso  1.000000 N
   N          1.0     0.074720      0.577462      0.338693     Biso  1.000000 N
   N          1.0     0.574719      0.922538      0.838692     Biso  1.000000 N
   N          1.0     0.925283      0.422531      0.661335     Biso  1.000000 N
   N          1.0     0.345626      0.124914      0.264537     Biso  1.000000 N
   N          1.0     0.154392      0.624890      0.235490     Biso  1.000000 N
   N          1.0     0.654392      0.875110      0.735491     Biso  1.000000 N
   N          1.0     0.845626      0.375087      0.764538     Biso  1.000000 N
   N          1.0     0.305110      0.616707      0.769201     Biso  1.000000 N
   N          1.0     0.194926      0.116719      0.730791     Biso  1.000000 N
   N          1.0     0.694927      0.383281      0.230791     Biso  1.000000 N
   N          1.0     0.805110      0.883293      0.269200     Biso  1.000000 N
   N          1.0     0.386189      0.396598      0.848635     Biso  1.000000 N
   N          1.0     0.113855      0.896604      0.651371     Biso  1.000000 N
   N          1.0     0.613855      0.603397      0.151371     Biso  1.000000 N
   N          1.0     0.886190      0.103401      0.348634     Biso  1.000000 N
   N          1.0     0.222525      0.606584      0.884727     Biso  1.000000 N
   N          1.0     0.277506      0.106591      0.615263     Biso  1.000000 N
   N          1.0     0.777506      0.393409      0.115262     Biso  1.000000 N
   N          1.0     0.722526      0.893416      0.384726     Biso  1.000000 N
   O          1.0     0.899569      0.139615      0.012267     Biso  1.000000 O
   O          1.0     0.600475      0.639623      0.487716     Biso  1.000000 O
   O          1.0     0.100474      0.860377      0.987717     Biso  1.000000 O
   O          1.0     0.399568      0.360385      0.512268     Biso  1.000000 O
   N          1.0     0.214054      0.418737      0.045807     Biso  1.000000 N
   N          1.0     0.285975      0.918731      0.454195     Biso  1.000000 N
   N          1.0     0.785976      0.581269      0.954195     Biso  1.000000 N
   N          1.0     0.714054      0.081263      0.545807     Biso  1.000000 N
   H          1.0     0.174261      0.501888      0.110699     Biso  1.000000 H
   H          1.0     0.325766      0.001878      0.389295     Biso  1.000000 H
   H          1.0     0.825766      0.498122      0.889296     Biso  1.000000 H
   H          1.0     0.674261      0.998112      0.610700     Biso  1.000000 H
   H          1.0     0.883437      0.237120      0.057168     Biso  1.000000 H
   H          1.0     0.616628      0.737121      0.442808     Biso  1.000000 H
   H          1.0     0.116628      0.762879      0.942809     Biso  1.000000 H
   H          1.0     0.383437      0.262880      0.557169     Biso  1.000000 H
   H          1.0     0.914822      0.068543      0.090422     Biso  1.000000 H
   H          1.0     0.585246      0.568543      0.409566     Biso  1.000000 H
   H          1.0     0.085245      0.931457      0.909565     Biso  1.000000 H
   H          1.0     0.414820      0.431457      0.590422     Biso  1.000000 H
