#======================================================================

# CRYSTAL DATA

#----------------------------------------------------------------------

data_VESTA_phase_1


_chemical_name_common                  '# Quantum Espresso PWSCF output snapsh'
_cell_length_a                         6.08577
_cell_length_b                         9.28061
_cell_length_c                         10.25010
_cell_angle_alpha                      90.00001
_cell_angle_beta                       100.85085
_cell_angle_gamma                      89.99999
_space_group_name_H-M_alt              'P 1'
_space_group_IT_number                 1

loop_
_space_group_symop_operation_xyz
   'x, y, z'

loop_
   _atom_site_label
   _atom_site_occupancy
   _atom_site_fract_x
   _atom_site_fract_y
   _atom_site_fract_z
   _atom_site_adp_type
   _atom_site_B_iso_or_equiv
   _atom_site_type_symbol
   Cd         1.0     0.542712      0.164719      0.881155     Biso  1.000000 Cd
   Cd         1.0     0.957294      0.664720      0.618855     Biso  1.000000 Cd
   Cd         1.0     0.457294      0.835281      0.118855     Biso  1.000000 Cd
   Cd         1.0     0.042712      0.335281      0.381155     Biso  1.000000 Cd
   N          1.0     0.384164      0.176888      0.061725     Biso  1.000000 N
   N          1.0     0.115842      0.676888      0.438285     Biso  1.000000 N
   N          1.0     0.615842      0.823112      0.938285     Biso  1.000000 N
   N          1.0     0.884164      0.323112      0.561725     Biso  1.000000 N
   C          1.0     0.289153      0.288202      0.112829     Biso  1.000000 C
   C          1.0     0.210852      0.788202      0.387181     Biso  1.000000 C
   C          1.0     0.710852      0.711798      0.887182     Biso  1.000000 C
   C          1.0     0.789153      0.211797      0.612829     Biso  1.000000 C
   N          1.0     0.382486      0.479670      0.750213     Biso  1.000000 N
   N          1.0     0.117520      0.979671      0.749796     Biso  1.000000 N
   N          1.0     0.617520      0.520330      0.249796     Biso  1.000000 N
   N          1.0     0.882486      0.020330      0.250213     Biso  1.000000 N
   N          1.0     0.256057      0.256111      0.235327     Biso  1.000000 N
   N          1.0     0.243948      0.756111      0.264682     Biso  1.000000 N
   N          1.0     0.743948      0.743889      0.764682     Biso  1.000000 N
   N          1.0     0.756057      0.243889      0.735328     Biso  1.000000 N
   C          1.0     0.275451      0.462777      0.936292     Biso  1.000000 C
   C          1.0     0.224554      0.962777      0.563717     Biso  1.000000 C
   C          1.0     0.724554      0.537223      0.063717     Biso  1.000000 C
   C          1.0     0.775451      0.037223      0.436293     Biso  1.000000 C
   N          1.0     0.409756      0.075492      0.156493     Biso  1.000000 N
   N          1.0     0.090249      0.575492      0.343517     Biso  1.000000 N
   N          1.0     0.590249      0.924508      0.843517     Biso  1.000000 N
   N          1.0     0.909756      0.424508      0.656493     Biso  1.000000 N
   N          1.0     0.334927      0.122161      0.259534     Biso  1.000000 N
   N          1.0     0.165079      0.622161      0.240476     Biso  1.000000 N
   N          1.0     0.665079      0.877839      0.740476     Biso  1.000000 N
   N          1.0     0.834927      0.377839      0.759534     Biso  1.000000 N
   N          1.0     0.290348      0.602019      0.773014     Biso  1.000000 N
   N          1.0     0.209657      0.102019      0.726995     Biso  1.000000 N
   N          1.0     0.709657      0.397981      0.226995     Biso  1.000000 N
   N          1.0     0.790348      0.897981      0.273014     Biso  1.000000 N
   N          1.0     0.377793      0.389205      0.852260     Biso  1.000000 N
   N          1.0     0.122213      0.889205      0.647749     Biso  1.000000 N
   N          1.0     0.622213      0.610794      0.147749     Biso  1.000000 N
   N          1.0     0.877793      0.110795      0.352260     Biso  1.000000 N
   N          1.0     0.221024      0.595807      0.890642     Biso  1.000000 N
   N          1.0     0.278981      0.095807      0.609367     Biso  1.000000 N
   N          1.0     0.778981      0.404193      0.109368     Biso  1.000000 N
   N          1.0     0.721024      0.904193      0.390642     Biso  1.000000 N
   O          1.0     0.890261      0.147801      0.015201     Biso  1.000000 O
   O          1.0     0.609745      0.647801      0.484808     Biso  1.000000 O
   O          1.0     0.109745      0.852199      0.984808     Biso  1.000000 O
   O          1.0     0.390260      0.352199      0.515201     Biso  1.000000 O
   N          1.0     0.231119      0.417396      0.054845     Biso  1.000000 N
   N          1.0     0.268886      0.917396      0.445165     Biso  1.000000 N
   N          1.0     0.768886      0.582604      0.945165     Biso  1.000000 N
   N          1.0     0.731120      0.082603      0.554844     Biso  1.000000 N
   H          1.0     0.191023      0.498426      0.117889     Biso  1.000000 H
   H          1.0     0.308982      0.998425      0.382120     Biso  1.000000 H
   H          1.0     0.808981      0.501575      0.882120     Biso  1.000000 H
   H          1.0     0.691024      0.001575      0.617889     Biso  1.000000 H
   H          1.0     0.877017      0.245676      0.054297     Biso  1.000000 H
   H          1.0     0.622988      0.745676      0.445712     Biso  1.000000 H
   H          1.0     0.122988      0.754324      0.945712     Biso  1.000000 H
   H          1.0     0.377017      0.254324      0.554297     Biso  1.000000 H
   H          1.0     0.898590      0.082766      0.093778     Biso  1.000000 H
   H          1.0     0.601415      0.582765      0.406232     Biso  1.000000 H
   H          1.0     0.101415      0.917234      0.906232     Biso  1.000000 H
   H          1.0     0.398590      0.417234      0.593778     Biso  1.000000 H
