#======================================================================

# CRYSTAL DATA

#----------------------------------------------------------------------

data_VESTA_phase_1


_chemical_name_common                  '# Quantum Espresso PWSCF output snapsh'
_cell_length_a                         6.07246
_cell_length_b                         9.15548
_cell_length_c                         10.13886
_cell_angle_alpha                      90
_cell_angle_beta                       101.31767
_cell_angle_gamma                      89.99999
_space_group_name_H-M_alt              'P 1'
_space_group_IT_number                 1

loop_
_space_group_symop_operation_xyz
   'x, y, z'

loop_
   _atom_site_label
   _atom_site_occupancy
   _atom_site_fract_x
   _atom_site_fract_y
   _atom_site_fract_z
   _atom_site_adp_type
   _atom_site_B_iso_or_equiv
   _atom_site_type_symbol
   Cd         1.0     0.544264      0.165461      0.881601     Biso  1.000000 Cd
   Cd         1.0     0.955758      0.665461      0.618406     Biso  1.000000 Cd
   Cd         1.0     0.455758      0.834539      0.118406     Biso  1.000000 Cd
   Cd         1.0     0.044264      0.334539      0.381601     Biso  1.000000 Cd
   N          1.0     0.385586      0.177325      0.061330     Biso  1.000000 N
   N          1.0     0.114436      0.677325      0.438677     Biso  1.000000 N
   N          1.0     0.614436      0.822675      0.938677     Biso  1.000000 N
   N          1.0     0.885586      0.322675      0.561330     Biso  1.000000 N
   C          1.0     0.285136      0.288860      0.110601     Biso  1.000000 C
   C          1.0     0.214886      0.788860      0.389406     Biso  1.000000 C
   C          1.0     0.714886      0.711140      0.889406     Biso  1.000000 C
   C          1.0     0.785135      0.211140      0.610601     Biso  1.000000 C
   N          1.0     0.392284      0.486118      0.749372     Biso  1.000000 N
   N          1.0     0.107738      0.986118      0.750634     Biso  1.000000 N
   N          1.0     0.607738      0.513882      0.250634     Biso  1.000000 N
   N          1.0     0.892284      0.013882      0.249372     Biso  1.000000 N
   N          1.0     0.254303      0.257295      0.234757     Biso  1.000000 N
   N          1.0     0.245719      0.757295      0.265250     Biso  1.000000 N
   N          1.0     0.745719      0.742705      0.765250     Biso  1.000000 N
   N          1.0     0.754303      0.242705      0.734757     Biso  1.000000 N
   C          1.0     0.274206      0.466092      0.933186     Biso  1.000000 C
   C          1.0     0.225816      0.966092      0.566820     Biso  1.000000 C
   C          1.0     0.725816      0.533908      0.066821     Biso  1.000000 C
   C          1.0     0.774206      0.033908      0.433186     Biso  1.000000 C
   N          1.0     0.418151      0.076853      0.159128     Biso  1.000000 N
   N          1.0     0.081871      0.576853      0.340879     Biso  1.000000 N
   N          1.0     0.581871      0.923147      0.840879     Biso  1.000000 N
   N          1.0     0.918151      0.423147      0.659128     Biso  1.000000 N
   N          1.0     0.340698      0.123952      0.262053     Biso  1.000000 N
   N          1.0     0.159323      0.623951      0.237953     Biso  1.000000 N
   N          1.0     0.659323      0.876049      0.737953     Biso  1.000000 N
   N          1.0     0.840698      0.376049      0.762053     Biso  1.000000 N
   N          1.0     0.298032      0.609553      0.771249     Biso  1.000000 N
   N          1.0     0.201990      0.109553      0.728758     Biso  1.000000 N
   N          1.0     0.701990      0.390447      0.228758     Biso  1.000000 N
   N          1.0     0.798032      0.890447      0.271249     Biso  1.000000 N
   N          1.0     0.382224      0.393097      0.850634     Biso  1.000000 N
   N          1.0     0.117798      0.893097      0.649373     Biso  1.000000 N
   N          1.0     0.617798      0.606903      0.149373     Biso  1.000000 N
   N          1.0     0.882224      0.106903      0.350634     Biso  1.000000 N
   N          1.0     0.221762      0.601400      0.887680     Biso  1.000000 N
   N          1.0     0.278260      0.101400      0.612326     Biso  1.000000 N
   N          1.0     0.778260      0.398600      0.112326     Biso  1.000000 N
   N          1.0     0.721762      0.898600      0.387680     Biso  1.000000 N
   O          1.0     0.894834      0.143034      0.013586     Biso  1.000000 O
   O          1.0     0.605188      0.643034      0.486421     Biso  1.000000 O
   O          1.0     0.105188      0.856966      0.986421     Biso  1.000000 O
   O          1.0     0.394834      0.356966      0.513586     Biso  1.000000 O
   N          1.0     0.221840      0.418258      0.050192     Biso  1.000000 N
   N          1.0     0.278182      0.918258      0.449814     Biso  1.000000 N
   N          1.0     0.778182      0.581743      0.949814     Biso  1.000000 N
   N          1.0     0.721840      0.081743      0.550193     Biso  1.000000 N
   H          1.0     0.181717      0.500359      0.113945     Biso  1.000000 H
   H          1.0     0.318304      1.000359      0.386061     Biso  1.000000 H
   H          1.0     0.818304      0.499641      0.886061     Biso  1.000000 H
   H          1.0     0.681717     -0.000359      0.613945     Biso  1.000000 H
   H          1.0     0.880479      0.240778      0.055610     Biso  1.000000 H
   H          1.0     0.619543      0.740778      0.444396     Biso  1.000000 H
   H          1.0     0.119543      0.759222      0.944396     Biso  1.000000 H
   H          1.0     0.380479      0.259222      0.555610     Biso  1.000000 H
   H          1.0     0.906870      0.074994      0.091868     Biso  1.000000 H
   H          1.0     0.593152      0.574994      0.408139     Biso  1.000000 H
   H          1.0     0.093152      0.925006      0.908139     Biso  1.000000 H
   H          1.0     0.406870      0.425006      0.591868     Biso  1.000000 H
