#======================================================================

# CRYSTAL DATA

#----------------------------------------------------------------------

data_VESTA_phase_1


_chemical_name_common                  '# Quantum Espresso PWSCF output snapsh'
_cell_length_a                         8.99887
_cell_length_b                         13.05805
_cell_length_c                         6.63921
_cell_angle_alpha                      89.99995
_cell_angle_beta                       105.98586
_cell_angle_gamma                      90.00005
_space_group_name_H-M_alt              'P 1'
_space_group_IT_number                 1

loop_
_space_group_symop_operation_xyz
   'x, y, z'

loop_
   _atom_site_label
   _atom_site_occupancy
   _atom_site_fract_x
   _atom_site_fract_y
   _atom_site_fract_z
   _atom_site_adp_type
   _atom_site_B_iso_or_equiv
   _atom_site_type_symbol
   K          1.0     0.878147      0.458305      0.229717     Biso  1.000000 K
   K          1.0     0.121849      0.958305      0.270281     Biso  1.000000 K
   K          1.0     0.121849      0.541689      0.770282     Biso  1.000000 K
   K          1.0     0.878148      0.041689      0.729718     Biso  1.000000 K
   H          1.0     0.821078      0.387049      0.664810     Biso  1.000000 H
   H          1.0     0.178919      0.887049      0.835189     Biso  1.000000 H
   H          1.0     0.178919      0.612944      0.335189     Biso  1.000000 H
   H          1.0     0.821078      0.112944      0.164810     Biso  1.000000 H
   H          1.0     0.791472      0.501092      0.717632     Biso  1.000000 H
   H          1.0     0.208525      0.001093      0.782366     Biso  1.000000 H
   H          1.0     0.208525      0.498900      0.282367     Biso  1.000000 H
   H          1.0     0.791472      0.998900      0.217632     Biso  1.000000 H
   H          1.0     0.643416      0.978726      0.892224     Biso  1.000000 H
   H          1.0     0.356580      0.478726      0.607775     Biso  1.000000 H
   H          1.0     0.356581      0.021267      0.107775     Biso  1.000000 H
   H          1.0     0.643416      0.521267      0.392224     Biso  1.000000 H
   O          1.0     0.744804      0.579226      0.887196     Biso  1.000000 O
   O          1.0     0.255192      0.079226      0.612802     Biso  1.000000 O
   O          1.0     0.255193      0.420767      0.112803     Biso  1.000000 O
   O          1.0     0.744804      0.920767      0.387197     Biso  1.000000 O
   O          1.0     0.821828      0.456755      0.612940     Biso  1.000000 O
   O          1.0     0.178169      0.956755      0.887059     Biso  1.000000 O
   O          1.0     0.178169      0.543238      0.387059     Biso  1.000000 O
   O          1.0     0.821827      0.043238      0.112940     Biso  1.000000 O
   O          1.0     0.345394      0.748817      0.564967     Biso  1.000000 O
   O          1.0     0.654603      0.248817      0.935031     Biso  1.000000 O
   O          1.0     0.654604      0.251176      0.435032     Biso  1.000000 O
   O          1.0     0.345394      0.751176      0.064967     Biso  1.000000 O
   N          1.0     0.806816      0.670332      0.909946     Biso  1.000000 N
   N          1.0     0.193182      0.170332      0.590052     Biso  1.000000 N
   N          1.0     0.193182      0.329661      0.090053     Biso  1.000000 N
   N          1.0     0.806816      0.829661      0.409946     Biso  1.000000 N
   N          1.0     0.958932      0.686463      1.005602     Biso  1.000000 N
   N          1.0     0.041064      0.186463      0.494397     Biso  1.000000 N
   N          1.0     0.041064      0.313529     -0.005602     Biso  1.000000 N
   N          1.0     0.958933      0.813530      0.505602     Biso  1.000000 N
   N          1.0     0.979303      0.786799      0.009951     Biso  1.000000 N
   N          1.0     0.020694      0.286799      0.490047     Biso  1.000000 N
   N          1.0     0.020694      0.213194      0.990047     Biso  1.000000 N
   N          1.0     0.979303      0.713194      0.509952     Biso  1.000000 N
   N          1.0     0.845898      0.836078      0.919951     Biso  1.000000 N
   N          1.0     0.154098      0.336078      0.580048     Biso  1.000000 N
   N          1.0     0.154099      0.163916      0.080048     Biso  1.000000 N
   N          1.0     0.845898      0.663915      0.419952     Biso  1.000000 N
   N          1.0     0.484052      0.703658      0.662293     Biso  1.000000 N
   N          1.0     0.515945      0.203658      0.837707     Biso  1.000000 N
   N          1.0     0.515946      0.296336      0.337706     Biso  1.000000 N
   N          1.0     0.484051      0.796335      0.162292     Biso  1.000000 N
   N          1.0     0.352915      0.855711      0.591656     Biso  1.000000 N
   N          1.0     0.647082      0.355712      0.908343     Biso  1.000000 N
   N          1.0     0.647082      0.144282      0.408343     Biso  1.000000 N
   N          1.0     0.352915      0.644282      0.091656     Biso  1.000000 N
   N          1.0     0.552011      0.970288      0.761625     Biso  1.000000 N
   N          1.0     0.447986      0.470288      0.738374     Biso  1.000000 N
   N          1.0     0.447986      0.029705      0.238374     Biso  1.000000 N
   N          1.0     0.552011      0.529705      0.261625     Biso  1.000000 N
   H          1.0     0.474280      0.029457      0.732334     Biso  1.000000 H
   H          1.0     0.525717      0.529457      0.767665     Biso  1.000000 H
   H          1.0     0.525717      0.970536      0.267665     Biso  1.000000 H
   H          1.0     0.474281      0.470536      0.232334     Biso  1.000000 H
   C          1.0     0.737824      0.763128      0.856576     Biso  1.000000 C
   C          1.0     0.262173      0.263128      0.643422     Biso  1.000000 C
   C          1.0     0.262173      0.236865      0.143423     Biso  1.000000 C
   C          1.0     0.737824      0.736865      0.356576     Biso  1.000000 C
   C          1.0     0.578228      0.779014      0.747292     Biso  1.000000 C
   C          1.0     0.421768      0.279014      0.752707     Biso  1.000000 C
   C          1.0     0.421769      0.220979      0.252707     Biso  1.000000 C
   C          1.0     0.578228      0.720979      0.247292     Biso  1.000000 C
   C          1.0     0.496415      0.875426      0.704705     Biso  1.000000 C
   C          1.0     0.503581      0.375426      0.795294     Biso  1.000000 C
   C          1.0     0.503582      0.124567      0.295294     Biso  1.000000 C
   C          1.0     0.496415      0.624567      0.204704     Biso  1.000000 C
