#======================================================================

# CRYSTAL DATA

#----------------------------------------------------------------------

data_VESTA_phase_1


_chemical_name_common                  '# Quantum Espresso PWSCF output snapsh'
_cell_length_a                         8.80866
_cell_length_b                         13.00656
_cell_length_c                         6.50767
_cell_angle_alpha                      89.99998
_cell_angle_beta                       104.89587
_cell_angle_gamma                      90.00002
_space_group_name_H-M_alt              'P 1'
_space_group_IT_number                 1

loop_
_space_group_symop_operation_xyz
   'x, y, z'

loop_
   _atom_site_label
   _atom_site_occupancy
   _atom_site_fract_x
   _atom_site_fract_y
   _atom_site_fract_z
   _atom_site_adp_type
   _atom_site_B_iso_or_equiv
   _atom_site_type_symbol
   K          1.0     0.882404      0.459798      0.228376     Biso  1.000000 K
   K          1.0     0.117588      0.959798      0.271621     Biso  1.000000 K
   K          1.0     0.117588      0.540193      0.771621     Biso  1.000000 K
   K          1.0     0.882404      0.040193      0.728376     Biso  1.000000 K
   H          1.0     0.814790      0.385302      0.663143     Biso  1.000000 H
   H          1.0     0.185202      0.885302      0.836854     Biso  1.000000 H
   H          1.0     0.185203      0.614688      0.336854     Biso  1.000000 H
   H          1.0     0.814789      0.114688      0.163144     Biso  1.000000 H
   H          1.0     0.788338      0.500734      0.715665     Biso  1.000000 H
   H          1.0     0.211655      0.000735      0.784332     Biso  1.000000 H
   H          1.0     0.211655      0.499254      0.284333     Biso  1.000000 H
   H          1.0     0.788338      0.999255      0.215665     Biso  1.000000 H
   H          1.0     0.641395      0.980636      0.891585     Biso  1.000000 H
   H          1.0     0.358597      0.480636      0.608414     Biso  1.000000 H
   H          1.0     0.358597      0.019354      0.108413     Biso  1.000000 H
   H          1.0     0.641395      0.519354      0.391584     Biso  1.000000 H
   O          1.0     0.745197      0.579359      0.889489     Biso  1.000000 O
   O          1.0     0.254796      0.079359      0.610508     Biso  1.000000 O
   O          1.0     0.254796      0.420631      0.110508     Biso  1.000000 O
   O          1.0     0.745196      0.920631      0.389490     Biso  1.000000 O
   O          1.0     0.816774      0.454813      0.608442     Biso  1.000000 O
   O          1.0     0.183218      0.954813      0.891555     Biso  1.000000 O
   O          1.0     0.183218      0.545178      0.391555     Biso  1.000000 O
   O          1.0     0.816773      0.045178      0.108443     Biso  1.000000 O
   O          1.0     0.343979      0.748334      0.560851     Biso  1.000000 O
   O          1.0     0.656014      0.248334      0.939145     Biso  1.000000 O
   O          1.0     0.656015      0.251656      0.439147     Biso  1.000000 O
   O          1.0     0.343978      0.751656      0.060850     Biso  1.000000 O
   N          1.0     0.808289      0.670701      0.914315     Biso  1.000000 N
   N          1.0     0.191704      0.170701      0.585682     Biso  1.000000 N
   N          1.0     0.191704      0.329289      0.085682     Biso  1.000000 N
   N          1.0     0.808289      0.829289      0.414315     Biso  1.000000 N
   N          1.0     0.961597      0.686578      0.014440     Biso  1.000000 N
   N          1.0     0.038395      0.186579      0.485558     Biso  1.000000 N
   N          1.0     0.038394      0.313411      0.985559     Biso  1.000000 N
   N          1.0     0.961598      0.813411      0.514440     Biso  1.000000 N
   N          1.0     0.982387      0.787170      0.020760     Biso  1.000000 N
   N          1.0     0.017605      0.287170      0.479237     Biso  1.000000 N
   N          1.0     0.017605      0.212820      0.979236     Biso  1.000000 N
   N          1.0     0.982387      0.712820      0.520760     Biso  1.000000 N
   N          1.0     0.847978      0.836882      0.927912     Biso  1.000000 N
   N          1.0     0.152014      0.336881      0.572087     Biso  1.000000 N
   N          1.0     0.152014      0.163109      0.072086     Biso  1.000000 N
   N          1.0     0.847978      0.663108      0.427912     Biso  1.000000 N
   N          1.0     0.483761      0.703380      0.662128     Biso  1.000000 N
   N          1.0     0.516232      0.203380      0.837870     Biso  1.000000 N
   N          1.0     0.516233      0.296611      0.337870     Biso  1.000000 N
   N          1.0     0.483759      0.796610      0.162128     Biso  1.000000 N
   N          1.0     0.351034      0.855683      0.585237     Biso  1.000000 N
   N          1.0     0.648958      0.355683      0.914760     Biso  1.000000 N
   N          1.0     0.648958      0.144308      0.414760     Biso  1.000000 N
   N          1.0     0.351034      0.644308      0.085237     Biso  1.000000 N
   N          1.0     0.550612      0.971226      0.758511     Biso  1.000000 N
   N          1.0     0.449380      0.471226      0.741486     Biso  1.000000 N
   N          1.0     0.449380      0.028764      0.241486     Biso  1.000000 N
   N          1.0     0.550612      0.528764      0.258510     Biso  1.000000 N
   H          1.0     0.471795      0.030657      0.725775     Biso  1.000000 H
   H          1.0     0.528198      0.530657      0.774223     Biso  1.000000 H
   H          1.0     0.528198      0.969334      0.274222     Biso  1.000000 H
   H          1.0     0.471795      0.469334      0.225774     Biso  1.000000 H
   C          1.0     0.738934      0.763818      0.860430     Biso  1.000000 C
   C          1.0     0.261059      0.263818      0.639567     Biso  1.000000 C
   C          1.0     0.261059      0.236173      0.139567     Biso  1.000000 C
   C          1.0     0.738933      0.736173      0.360430     Biso  1.000000 C
   C          1.0     0.578123      0.779415      0.747542     Biso  1.000000 C
   C          1.0     0.421869      0.279415      0.752454     Biso  1.000000 C
   C          1.0     0.421870      0.220575      0.252454     Biso  1.000000 C
   C          1.0     0.578122      0.720575      0.247542     Biso  1.000000 C
   C          1.0     0.495355      0.875979      0.701471     Biso  1.000000 C
   C          1.0     0.504637      0.375980      0.798526     Biso  1.000000 C
   C          1.0     0.504637      0.124010      0.298526     Biso  1.000000 C
   C          1.0     0.495355      0.624010      0.201471     Biso  1.000000 C
