#======================================================================

# CRYSTAL DATA

#----------------------------------------------------------------------

data_VESTA_phase_1


_chemical_name_common                  '# Quantum Espresso PWSCF output snapsh'
_cell_length_a                         8.10748
_cell_length_b                         12.62097
_cell_length_c                         5.91172
_cell_angle_alpha                      90
_cell_angle_beta                       102.06442
_cell_angle_gamma                      90
_space_group_name_H-M_alt              'P 1'
_space_group_IT_number                 1

loop_
_space_group_symop_operation_xyz
   'x, y, z'

loop_
   _atom_site_label
   _atom_site_occupancy
   _atom_site_fract_x
   _atom_site_fract_y
   _atom_site_fract_z
   _atom_site_adp_type
   _atom_site_B_iso_or_equiv
   _atom_site_type_symbol
   K          1.0     0.901003      0.467093      0.221005     Biso  1.000000 K
   K          1.0     0.099002      0.967091      0.278995     Biso  1.000000 K
   K          1.0     0.098998      0.532907      0.778995     Biso  1.000000 K
   K          1.0     0.901000      0.032906      0.721003     Biso  1.000000 K
   H          1.0     0.795234      0.376889      0.658340     Biso  1.000000 H
   H          1.0     0.204763      0.876887      0.841658     Biso  1.000000 H
   H          1.0     0.204767      0.623111      0.341659     Biso  1.000000 H
   H          1.0     0.795238      0.123112      0.158342     Biso  1.000000 H
   H          1.0     0.778776      0.498326      0.712364     Biso  1.000000 H
   H          1.0     0.221222      0.998325      0.787635     Biso  1.000000 H
   H          1.0     0.221227      0.501675      0.287635     Biso  1.000000 H
   H          1.0     0.778779      0.001675      0.212367     Biso  1.000000 H
   H          1.0     0.640319      0.990725      0.893663     Biso  1.000000 H
   H          1.0     0.359680      0.490725      0.606335     Biso  1.000000 H
   H          1.0     0.359684      0.009274      0.106335     Biso  1.000000 H
   H          1.0     0.640321      0.509273      0.393664     Biso  1.000000 H
   O          1.0     0.748539      0.581361      0.894040     Biso  1.000000 O
   O          1.0     0.251461      0.081362      0.605957     Biso  1.000000 O
   O          1.0     0.251464      0.418638      0.105957     Biso  1.000000 O
   O          1.0     0.748543      0.918638      0.394042     Biso  1.000000 O
   O          1.0     0.801763      0.447261      0.594703     Biso  1.000000 O
   O          1.0     0.198237      0.947260      0.905294     Biso  1.000000 O
   O          1.0     0.198241      0.552738      0.405298     Biso  1.000000 O
   O          1.0     0.801766      0.052740      0.094703     Biso  1.000000 O
   O          1.0     0.335320      0.747252      0.542502     Biso  1.000000 O
   O          1.0     0.664680      0.247253      0.957498     Biso  1.000000 O
   O          1.0     0.664683      0.252746      0.457499     Biso  1.000000 O
   O          1.0     0.335325      0.752745      0.042503     Biso  1.000000 O
   N          1.0     0.818023      0.673941      0.926735     Biso  1.000000 N
   N          1.0     0.181977      0.173942      0.573264     Biso  1.000000 N
   N          1.0     0.181980      0.326060      0.073266     Biso  1.000000 N
   N          1.0     0.818026      0.826059      0.426736     Biso  1.000000 N
   N          1.0     0.978222      0.688611      0.041541     Biso  1.000000 N
   N          1.0     0.021786      0.188613      0.458460     Biso  1.000000 N
   N          1.0     0.021782      0.311387      0.958460     Biso  1.000000 N
   N          1.0     0.978218      0.811387      0.541540     Biso  1.000000 N
   N          1.0     1.000331      0.791227      0.055164     Biso  1.000000 N
   N          1.0    -0.000324      0.291228      0.444838     Biso  1.000000 N
   N          1.0    -0.000327      0.208771      0.944836     Biso  1.000000 N
   N          1.0     1.000327      0.708770      0.555163     Biso  1.000000 N
   N          1.0     0.859484      0.843518      0.953372     Biso  1.000000 N
   N          1.0     0.140515      0.343518      0.546630     Biso  1.000000 N
   N          1.0     0.140518      0.156481      0.046631     Biso  1.000000 N
   N          1.0     0.859487      0.656480      0.453372     Biso  1.000000 N
   N          1.0     0.481699      0.702570      0.658833     Biso  1.000000 N
   N          1.0     0.518300      0.202571      0.841166     Biso  1.000000 N
   N          1.0     0.518304      0.297430      0.341168     Biso  1.000000 N
   N          1.0     0.481702      0.797429      0.158834     Biso  1.000000 N
   N          1.0     0.341693      0.857445      0.557121     Biso  1.000000 N
   N          1.0     0.658305      0.357444      0.942880     Biso  1.000000 N
   N          1.0     0.658309      0.142557      0.442880     Biso  1.000000 N
   N          1.0     0.341697      0.642555      0.057122     Biso  1.000000 N
   N          1.0     0.546145      0.977426      0.751219     Biso  1.000000 N
   N          1.0     0.453852      0.477426      0.748779     Biso  1.000000 N
   N          1.0     0.453856      0.022573      0.248779     Biso  1.000000 N
   N          1.0     0.546148      0.522572      0.251222     Biso  1.000000 N
   H          1.0     0.464632      0.039290      0.707690     Biso  1.000000 H
   H          1.0     0.535366      0.539291      0.792310     Biso  1.000000 H
   H          1.0     0.535369      0.960709      0.292313     Biso  1.000000 H
   H          1.0     0.464636      0.460710      0.207690     Biso  1.000000 H
   C          1.0     0.745775      0.769241      0.872215     Biso  1.000000 C
   C          1.0     0.254225      0.269242      0.627783     Biso  1.000000 C
   C          1.0     0.254229      0.230757      0.127785     Biso  1.000000 C
   C          1.0     0.745779      0.730756      0.372215     Biso  1.000000 C
   C          1.0     0.577908      0.782546      0.746979     Biso  1.000000 C
   C          1.0     0.422091      0.282546      0.753021     Biso  1.000000 C
   C          1.0     0.422094      0.217454      0.253022     Biso  1.000000 C
   C          1.0     0.577911      0.717453      0.246980     Biso  1.000000 C
   C          1.0     0.491066      0.880381      0.688500     Biso  1.000000 C
   C          1.0     0.508933      0.380383      0.811499     Biso  1.000000 C
   C          1.0     0.508936      0.119616      0.311501     Biso  1.000000 C
   C          1.0     0.491071      0.619616      0.188500     Biso  1.000000 C
