#======================================================================

# CRYSTAL DATA

#----------------------------------------------------------------------

data_VESTA_phase_1


_chemical_name_common                  '# Quantum Espresso PWSCF output snapsh'
_cell_length_a                         8.07875
_cell_length_b                         12.59297
_cell_length_c                         5.87714
_cell_angle_alpha                      89.99996
_cell_angle_beta                       102.00871
_cell_angle_gamma                      90.00003
_space_group_name_H-M_alt              'P 1'
_space_group_IT_number                 1

loop_
_space_group_symop_operation_xyz
   'x, y, z'

loop_
   _atom_site_label
   _atom_site_occupancy
   _atom_site_fract_x
   _atom_site_fract_y
   _atom_site_fract_z
   _atom_site_adp_type
   _atom_site_B_iso_or_equiv
   _atom_site_type_symbol
   K          1.0     0.901767      0.467431      0.220754     Biso  1.000000 K
   K          1.0     0.098229      0.967430      0.279244     Biso  1.000000 K
   K          1.0     0.098228      0.532566      0.779245     Biso  1.000000 K
   K          1.0     0.901768      0.032565      0.720753     Biso  1.000000 K
   H          1.0     0.794727      0.376328      0.658318     Biso  1.000000 H
   H          1.0     0.205269      0.876328      0.841680     Biso  1.000000 H
   H          1.0     0.205269      0.623669      0.341679     Biso  1.000000 H
   H          1.0     0.794726      0.123669      0.158319     Biso  1.000000 H
   H          1.0     0.778505      0.498063      0.713021     Biso  1.000000 H
   H          1.0     0.221491      0.998062      0.786977     Biso  1.000000 H
   H          1.0     0.221492      0.501936      0.286976     Biso  1.000000 H
   H          1.0     0.778504      0.001935      0.213023     Biso  1.000000 H
   H          1.0     0.640772      0.991091      0.894409     Biso  1.000000 H
   H          1.0     0.359225      0.491091      0.605587     Biso  1.000000 H
   H          1.0     0.359226      0.008906      0.105587     Biso  1.000000 H
   H          1.0     0.640771      0.508905      0.394410     Biso  1.000000 H
   O          1.0     0.748275      0.581531      0.894190     Biso  1.000000 O
   O          1.0     0.251723      0.081532      0.605806     Biso  1.000000 O
   O          1.0     0.251722      0.418466      0.105805     Biso  1.000000 O
   O          1.0     0.748276      0.918466      0.394192     Biso  1.000000 O
   O          1.0     0.801533      0.446887      0.594672     Biso  1.000000 O
   O          1.0     0.198465      0.946887      0.905325     Biso  1.000000 O
   O          1.0     0.198465      0.553110      0.405327     Biso  1.000000 O
   O          1.0     0.801533      0.053111      0.094671     Biso  1.000000 O
   O          1.0     0.334777      0.747269      0.541106     Biso  1.000000 O
   O          1.0     0.665222      0.247269      0.958893     Biso  1.000000 O
   O          1.0     0.665221      0.252727      0.458893     Biso  1.000000 O
   O          1.0     0.334778      0.752727      0.041106     Biso  1.000000 O
   N          1.0     0.818402      0.674123      0.927127     Biso  1.000000 N
   N          1.0     0.181596      0.174123      0.572872     Biso  1.000000 N
   N          1.0     0.181596      0.325876      0.072872     Biso  1.000000 N
   N          1.0     0.818402      0.825876      0.427127     Biso  1.000000 N
   N          1.0     0.979057      0.688658      0.042447     Biso  1.000000 N
   N          1.0     0.020941      0.188659      0.457552     Biso  1.000000 N
   N          1.0     0.020941      0.311338      0.957552     Biso  1.000000 N
   N          1.0     0.979057      0.811339      0.542447     Biso  1.000000 N
   N          1.0     0.001345      0.791421      0.056393     Biso  1.000000 N
   N          1.0     0.998653      0.291420      0.443606     Biso  1.000000 N
   N          1.0     0.998653      0.208575      0.943605     Biso  1.000000 N
   N          1.0     0.001345      0.708575      0.556394     Biso  1.000000 N
   N          1.0     0.860145      0.843940      0.954269     Biso  1.000000 N
   N          1.0     0.139851      0.343939      0.545732     Biso  1.000000 N
   N          1.0     0.139852      0.156057      0.045733     Biso  1.000000 N
   N          1.0     0.860145      0.656056      0.454268     Biso  1.000000 N
   N          1.0     0.481533      0.702527      0.658197     Biso  1.000000 N
   N          1.0     0.518463      0.202527      0.841802     Biso  1.000000 N
   N          1.0     0.518464      0.297470      0.341803     Biso  1.000000 N
   N          1.0     0.481533      0.797470      0.158196     Biso  1.000000 N
   N          1.0     0.341176      0.857654      0.555427     Biso  1.000000 N
   N          1.0     0.658820      0.357652      0.944573     Biso  1.000000 N
   N          1.0     0.658820      0.142346      0.444572     Biso  1.000000 N
   N          1.0     0.341176      0.642345      0.055428     Biso  1.000000 N
   N          1.0     0.546000      0.977759      0.751603     Biso  1.000000 N
   N          1.0     0.453995      0.477759      0.748395     Biso  1.000000 N
   N          1.0     0.453995      0.022238      0.248393     Biso  1.000000 N
   N          1.0     0.546000      0.522237      0.251604     Biso  1.000000 N
   H          1.0     0.464590      0.039913      0.707998     Biso  1.000000 H
   H          1.0     0.535406      0.539914      0.792002     Biso  1.000000 H
   H          1.0     0.535406      0.960084      0.292003     Biso  1.000000 H
   H          1.0     0.464590      0.460085      0.207997     Biso  1.000000 H
   C          1.0     0.746083      0.769601      0.872613     Biso  1.000000 C
   C          1.0     0.253916      0.269601      0.627385     Biso  1.000000 C
   C          1.0     0.253915      0.230395      0.127385     Biso  1.000000 C
   C          1.0     0.746083      0.730395      0.372611     Biso  1.000000 C
   C          1.0     0.577821      0.782735      0.746778     Biso  1.000000 C
   C          1.0     0.422175      0.282734      0.753220     Biso  1.000000 C
   C          1.0     0.422176      0.217263      0.253221     Biso  1.000000 C
   C          1.0     0.577821      0.717263      0.246779     Biso  1.000000 C
   C          1.0     0.490809      0.880681      0.687892     Biso  1.000000 C
   C          1.0     0.509189      0.380682      0.812107     Biso  1.000000 C
   C          1.0     0.509188      0.119314      0.312108     Biso  1.000000 C
   C          1.0     0.490810      0.619315      0.187891     Biso  1.000000 C
