#======================================================================

# CRYSTAL DATA

#----------------------------------------------------------------------

data_VESTA_phase_1


_chemical_name_common                  '# Quantum Espresso PWSCF output snapsh'
_cell_length_a                         8.05191
_cell_length_b                         12.56624
_cell_length_c                         5.84439
_cell_angle_alpha                      90.00002
_cell_angle_beta                       101.96315
_cell_angle_gamma                      90
_space_group_name_H-M_alt              'P 1'
_space_group_IT_number                 1

loop_
_space_group_symop_operation_xyz
   'x, y, z'

loop_
   _atom_site_label
   _atom_site_occupancy
   _atom_site_fract_x
   _atom_site_fract_y
   _atom_site_fract_z
   _atom_site_adp_type
   _atom_site_B_iso_or_equiv
   _atom_site_type_symbol
   K          1.0     0.902468      0.467747      0.220537     Biso  1.000000 K
   K          1.0     0.097532      0.967746      0.279462     Biso  1.000000 K
   K          1.0     0.097531      0.532248      0.779463     Biso  1.000000 K
   K          1.0     0.902469      0.032247      0.720536     Biso  1.000000 K
   H          1.0     0.794311      0.375804      0.658383     Biso  1.000000 H
   H          1.0     0.205688      0.875804      0.841615     Biso  1.000000 H
   H          1.0     0.205688      0.624191      0.341615     Biso  1.000000 H
   H          1.0     0.794310      0.124191      0.158385     Biso  1.000000 H
   H          1.0     0.778276      0.497823      0.713694     Biso  1.000000 H
   H          1.0     0.221724      0.997822      0.786306     Biso  1.000000 H
   H          1.0     0.221725      0.502174      0.286304     Biso  1.000000 H
   H          1.0     0.778275      0.002173      0.213695     Biso  1.000000 H
   H          1.0     0.641232      0.991416      0.895168     Biso  1.000000 H
   H          1.0     0.358769      0.491416      0.604829     Biso  1.000000 H
   H          1.0     0.358770      0.008578      0.104829     Biso  1.000000 H
   H          1.0     0.641231      0.508578      0.395169     Biso  1.000000 H
   O          1.0     0.748006      0.581703      0.894329     Biso  1.000000 O
   O          1.0     0.251995      0.081704      0.605669     Biso  1.000000 O
   O          1.0     0.251994      0.418291      0.105667     Biso  1.000000 O
   O          1.0     0.748007      0.918292      0.394330     Biso  1.000000 O
   O          1.0     0.801348      0.446537      0.594700     Biso  1.000000 O
   O          1.0     0.198653      0.946538      0.905299     Biso  1.000000 O
   O          1.0     0.198653      0.553458      0.405300     Biso  1.000000 O
   O          1.0     0.801348      0.053458      0.094698     Biso  1.000000 O
   O          1.0     0.334269      0.747284      0.539741     Biso  1.000000 O
   O          1.0     0.665734      0.247284      0.960259     Biso  1.000000 O
   O          1.0     0.665733      0.252709      0.460259     Biso  1.000000 O
   O          1.0     0.334270      0.752709      0.039741     Biso  1.000000 O
   N          1.0     0.818765      0.674299      0.927503     Biso  1.000000 N
   N          1.0     0.181237      0.174299      0.572498     Biso  1.000000 N
   N          1.0     0.181237      0.325698      0.072497     Biso  1.000000 N
   N          1.0     0.818764      0.825698      0.427502     Biso  1.000000 N
   N          1.0     0.979861      0.688701      0.043311     Biso  1.000000 N
   N          1.0     0.020140      0.188701      0.456689     Biso  1.000000 N
   N          1.0     0.020140      0.311293      0.956689     Biso  1.000000 N
   N          1.0     0.979861      0.811294      0.543311     Biso  1.000000 N
   N          1.0     0.002325      0.791602      0.057572     Biso  1.000000 N
   N          1.0     0.997677      0.291602      0.442428     Biso  1.000000 N
   N          1.0     0.997677      0.208391      0.942427     Biso  1.000000 N
   N          1.0     0.002325      0.708390      0.557573     Biso  1.000000 N
   N          1.0     0.860786      0.844344      0.955127     Biso  1.000000 N
   N          1.0     0.139214      0.344342      0.544875     Biso  1.000000 N
   N          1.0     0.139214      0.155651      0.044876     Biso  1.000000 N
   N          1.0     0.860786      0.655650      0.455126     Biso  1.000000 N
   N          1.0     0.481387      0.702483      0.657565     Biso  1.000000 N
   N          1.0     0.518613      0.202483      0.842435     Biso  1.000000 N
   N          1.0     0.518614      0.297511      0.342436     Biso  1.000000 N
   N          1.0     0.481386      0.797512      0.157564     Biso  1.000000 N
   N          1.0     0.340694      0.857850      0.553792     Biso  1.000000 N
   N          1.0     0.659305      0.357849      0.946208     Biso  1.000000 N
   N          1.0     0.659305      0.142147      0.446208     Biso  1.000000 N
   N          1.0     0.340694      0.642146      0.053794     Biso  1.000000 N
   N          1.0     0.545875      0.978066      0.752019     Biso  1.000000 N
   N          1.0     0.454124      0.478065      0.747980     Biso  1.000000 N
   N          1.0     0.454124      0.021929      0.247978     Biso  1.000000 N
   N          1.0     0.545875      0.521928      0.252020     Biso  1.000000 N
   H          1.0     0.464576      0.040505      0.708386     Biso  1.000000 H
   H          1.0     0.535423      0.540506      0.791615     Biso  1.000000 H
   H          1.0     0.535423      0.959490      0.291616     Biso  1.000000 H
   H          1.0     0.464576      0.459491      0.208385     Biso  1.000000 H
   C          1.0     0.746382      0.769948      0.872994     Biso  1.000000 C
   C          1.0     0.253619      0.269948      0.627004     Biso  1.000000 C
   C          1.0     0.253619      0.230046      0.127005     Biso  1.000000 C
   C          1.0     0.746383      0.730046      0.372993     Biso  1.000000 C
   C          1.0     0.577745      0.782911      0.746584     Biso  1.000000 C
   C          1.0     0.422255      0.282911      0.753416     Biso  1.000000 C
   C          1.0     0.422255      0.217084      0.253416     Biso  1.000000 C
   C          1.0     0.577745      0.717083      0.246584     Biso  1.000000 C
   C          1.0     0.490569      0.880962      0.687317     Biso  1.000000 C
   C          1.0     0.509432      0.380963      0.812683     Biso  1.000000 C
   C          1.0     0.509431      0.119031      0.312684     Biso  1.000000 C
   C          1.0     0.490570      0.619031      0.187316     Biso  1.000000 C
