#======================================================================

# CRYSTAL DATA

#----------------------------------------------------------------------

data_VESTA_phase_1


_chemical_name_common                  '# Quantum Espresso PWSCF output snapsh'
_cell_length_a                         7.97965
_cell_length_b                         12.49291
_cell_length_c                         5.75506
_cell_angle_alpha                      90
_cell_angle_beta                       101.86375
_cell_angle_gamma                      90
_space_group_name_H-M_alt              'P 1'
_space_group_IT_number                 1

loop_
_space_group_symop_operation_xyz
   'x, y, z'

loop_
   _atom_site_label
   _atom_site_occupancy
   _atom_site_fract_x
   _atom_site_fract_y
   _atom_site_fract_z
   _atom_site_adp_type
   _atom_site_B_iso_or_equiv
   _atom_site_type_symbol
   K          1.0     0.904230      0.468600      0.220019     Biso  1.000000 K
   K          1.0     0.095765      0.968599      0.279979     Biso  1.000000 K
   K          1.0     0.095763      0.531399      0.779978     Biso  1.000000 K
   K          1.0     0.904227      0.031399      0.720019     Biso  1.000000 K
   H          1.0     0.793545      0.374446      0.659181     Biso  1.000000 H
   H          1.0     0.206446      0.874446      0.840815     Biso  1.000000 H
   H          1.0     0.206449      0.625552      0.340816     Biso  1.000000 H
   H          1.0     0.793547      0.125551      0.159180     Biso  1.000000 H
   H          1.0     0.777742      0.497258      0.715659     Biso  1.000000 H
   H          1.0     0.222249      0.997258      0.784338     Biso  1.000000 H
   H          1.0     0.222252      0.502740      0.284339     Biso  1.000000 H
   H          1.0     0.777744      0.002740      0.215660     Biso  1.000000 H
   H          1.0     0.642546      0.992201      0.897451     Biso  1.000000 H
   H          1.0     0.357445      0.492202      0.602546     Biso  1.000000 H
   H          1.0     0.357448      0.007796      0.102548     Biso  1.000000 H
   H          1.0     0.642548      0.507795      0.397450     Biso  1.000000 H
   O          1.0     0.747180      0.582238      0.894651     Biso  1.000000 O
   O          1.0     0.252810      0.082238      0.605344     Biso  1.000000 O
   O          1.0     0.252812      0.417760      0.105347     Biso  1.000000 O
   O          1.0     0.747183      0.917760      0.394652     Biso  1.000000 O
   O          1.0     0.800946      0.445609      0.595013     Biso  1.000000 O
   O          1.0     0.199044      0.945610      0.904982     Biso  1.000000 O
   O          1.0     0.199047      0.554388      0.404984     Biso  1.000000 O
   O          1.0     0.800949      0.054388      0.095015     Biso  1.000000 O
   O          1.0     0.332854      0.747322      0.535842     Biso  1.000000 O
   O          1.0     0.667135      0.247322      0.964155     Biso  1.000000 O
   O          1.0     0.667138      0.252676      0.464156     Biso  1.000000 O
   O          1.0     0.332858      0.752676      0.035841     Biso  1.000000 O
   N          1.0     0.819740      0.674813      0.928543     Biso  1.000000 N
   N          1.0     0.180251      0.174814      0.571453     Biso  1.000000 N
   N          1.0     0.180254      0.325185      0.071454     Biso  1.000000 N
   N          1.0     0.819743      0.825185      0.428544     Biso  1.000000 N
   N          1.0     0.982073      0.688844      0.045691     Biso  1.000000 N
   N          1.0     0.017924      0.188843      0.454307     Biso  1.000000 N
   N          1.0     0.017921      0.311154      0.954307     Biso  1.000000 N
   N          1.0     0.982070      0.811154      0.545689     Biso  1.000000 N
   N          1.0     0.005018      0.792124      0.060854     Biso  1.000000 N
   N          1.0     0.994978      0.292123      0.439144     Biso  1.000000 N
   N          1.0     0.994975      0.207874      0.939142     Biso  1.000000 N
   N          1.0     0.005015      0.707875      0.560854     Biso  1.000000 N
   N          1.0     0.862536      0.845478      0.957501     Biso  1.000000 N
   N          1.0     0.137453      0.345478      0.542495     Biso  1.000000 N
   N          1.0     0.137456      0.154520      0.042496     Biso  1.000000 N
   N          1.0     0.862539      0.654520      0.457502     Biso  1.000000 N
   N          1.0     0.480973      0.702344      0.655734     Biso  1.000000 N
   N          1.0     0.519016      0.202345      0.844263     Biso  1.000000 N
   N          1.0     0.519019      0.297654      0.344263     Biso  1.000000 N
   N          1.0     0.480977      0.797654      0.155735     Biso  1.000000 N
   N          1.0     0.339379      0.858371      0.549174     Biso  1.000000 N
   N          1.0     0.660612      0.358370      0.950822     Biso  1.000000 N
   N          1.0     0.660615      0.141627      0.450823     Biso  1.000000 N
   N          1.0     0.339381      0.641627      0.049175     Biso  1.000000 N
   N          1.0     0.545559      0.978849      0.753326     Biso  1.000000 N
   N          1.0     0.454430      0.478849      0.746670     Biso  1.000000 N
   N          1.0     0.454434      0.021149      0.246671     Biso  1.000000 N
   N          1.0     0.545562      0.521149      0.253326     Biso  1.000000 N
   H          1.0     0.464627      0.042107      0.709833     Biso  1.000000 H
   H          1.0     0.535364      0.542107      0.790164     Biso  1.000000 H
   H          1.0     0.535366      0.957891      0.290165     Biso  1.000000 H
   H          1.0     0.464630      0.457891      0.209833     Biso  1.000000 H
   C          1.0     0.747191      0.770928      0.874060     Biso  1.000000 C
   C          1.0     0.252799      0.270929      0.625936     Biso  1.000000 C
   C          1.0     0.252802      0.229070      0.125936     Biso  1.000000 C
   C          1.0     0.747193      0.729069      0.374061     Biso  1.000000 C
   C          1.0     0.577509      0.783378      0.746040     Biso  1.000000 C
   C          1.0     0.422481      0.283378      0.753955     Biso  1.000000 C
   C          1.0     0.422484      0.216619      0.253956     Biso  1.000000 C
   C          1.0     0.577513      0.716620      0.246043     Biso  1.000000 C
   C          1.0     0.489896      0.881707      0.685733     Biso  1.000000 C
   C          1.0     0.510094      0.381707      0.814264     Biso  1.000000 C
   C          1.0     0.510096      0.118291      0.314265     Biso  1.000000 C
   C          1.0     0.489899      0.618290      0.185734     Biso  1.000000 C
