#======================================================================

# CRYSTAL DATA

#----------------------------------------------------------------------

data_VESTA_phase_1


_chemical_name_common                  '# Quantum Espresso PWSCF output snapsh'
_cell_length_a                         7.91585
_cell_length_b                         12.42790
_cell_length_c                         5.67715
_cell_angle_alpha                      90
_cell_angle_beta                       101.79994
_cell_angle_gamma                      90
_space_group_name_H-M_alt              'P 1'
_space_group_IT_number                 1

loop_
_space_group_symop_operation_xyz
   'x, y, z'

loop_
   _atom_site_label
   _atom_site_occupancy
   _atom_site_fract_x
   _atom_site_fract_y
   _atom_site_fract_z
   _atom_site_adp_type
   _atom_site_B_iso_or_equiv
   _atom_site_type_symbol
   K          1.0     0.905613      0.469321      0.219662     Biso  1.000000 K
   K          1.0     0.094385      0.969318      0.280338     Biso  1.000000 K
   K          1.0     0.094385      0.530675      0.780337     Biso  1.000000 K
   K          1.0     0.905613      0.030678      0.719662     Biso  1.000000 K
   H          1.0     0.793369      0.373344      0.660708     Biso  1.000000 H
   H          1.0     0.206630      0.873343      0.839290     Biso  1.000000 H
   H          1.0     0.206630      0.626651      0.339291     Biso  1.000000 H
   H          1.0     0.793369      0.126650      0.160707     Biso  1.000000 H
   H          1.0     0.777421      0.496886      0.717518     Biso  1.000000 H
   H          1.0     0.222580      0.996884      0.782481     Biso  1.000000 H
   H          1.0     0.222580      0.503110      0.282482     Biso  1.000000 H
   H          1.0     0.777419      0.003112      0.217519     Biso  1.000000 H
   H          1.0     0.643763      0.992732      0.899637     Biso  1.000000 H
   H          1.0     0.356237      0.492735      0.600362     Biso  1.000000 H
   H          1.0     0.356237      0.007262      0.100364     Biso  1.000000 H
   H          1.0     0.643762      0.507260      0.399636     Biso  1.000000 H
   O          1.0     0.746453      0.582756      0.894904     Biso  1.000000 O
   O          1.0     0.253546      0.082757      0.605094     Biso  1.000000 O
   O          1.0     0.253545      0.417240      0.105096     Biso  1.000000 O
   O          1.0     0.746453      0.917239      0.394903     Biso  1.000000 O
   O          1.0     0.800649      0.444820      0.595533     Biso  1.000000 O
   O          1.0     0.199349      0.944818      0.904464     Biso  1.000000 O
   O          1.0     0.199349      0.555176      0.404466     Biso  1.000000 O
   O          1.0     0.800650      0.055177      0.095534     Biso  1.000000 O
   O          1.0     0.331627      0.747307      0.532127     Biso  1.000000 O
   O          1.0     0.668371      0.247309      0.967873     Biso  1.000000 O
   O          1.0     0.668370      0.252687      0.467872     Biso  1.000000 O
   O          1.0     0.331628      0.752687      0.032124     Biso  1.000000 O
   N          1.0     0.820671      0.675287      0.929508     Biso  1.000000 N
   N          1.0     0.179329      0.175290      0.570490     Biso  1.000000 N
   N          1.0     0.179329      0.324708      0.070491     Biso  1.000000 N
   N          1.0     0.820670      0.824707      0.429507     Biso  1.000000 N
   N          1.0     0.984114      0.689002      0.047902     Biso  1.000000 N
   N          1.0     0.015886      0.189003      0.452097     Biso  1.000000 N
   N          1.0     0.015886      0.310993      0.952098     Biso  1.000000 N
   N          1.0     0.984115      0.810992      0.547901     Biso  1.000000 N
   N          1.0     0.007453      0.792613      0.063902     Biso  1.000000 N
   N          1.0     0.992546      0.292614      0.436096     Biso  1.000000 N
   N          1.0     0.992545      0.207381      0.936096     Biso  1.000000 N
   N          1.0     0.007453      0.707382      0.563903     Biso  1.000000 N
   N          1.0     0.864112      0.846500      0.959649     Biso  1.000000 N
   N          1.0     0.135885      0.346500      0.540349     Biso  1.000000 N
   N          1.0     0.135885      0.153496      0.040349     Biso  1.000000 N
   N          1.0     0.864113      0.653494      0.459649     Biso  1.000000 N
   N          1.0     0.480656      0.702159      0.653933     Biso  1.000000 N
   N          1.0     0.519342      0.202162      0.846066     Biso  1.000000 N
   N          1.0     0.519342      0.297835      0.346065     Biso  1.000000 N
   N          1.0     0.480656      0.797835      0.153934     Biso  1.000000 N
   N          1.0     0.338254      0.858768      0.544849     Biso  1.000000 N
   N          1.0     0.661747      0.358769      0.955149     Biso  1.000000 N
   N          1.0     0.661746      0.141226      0.455151     Biso  1.000000 N
   N          1.0     0.338253      0.641226      0.044849     Biso  1.000000 N
   N          1.0     0.545347      0.979443      0.754560     Biso  1.000000 N
   N          1.0     0.454650      0.479444      0.745438     Biso  1.000000 N
   N          1.0     0.454651      0.020553      0.245438     Biso  1.000000 N
   N          1.0     0.545348      0.520551      0.254559     Biso  1.000000 N
   H          1.0     0.464780      0.043459      0.711465     Biso  1.000000 H
   H          1.0     0.535220      0.543457      0.788534     Biso  1.000000 H
   H          1.0     0.535219      0.956537      0.288534     Biso  1.000000 H
   H          1.0     0.464780      0.456539      0.211464     Biso  1.000000 H
   C          1.0     0.747955      0.771800      0.874998     Biso  1.000000 C
   C          1.0     0.252044      0.271802      0.625001     Biso  1.000000 C
   C          1.0     0.252043      0.228196      0.125000     Biso  1.000000 C
   C          1.0     0.747954      0.728193      0.374999     Biso  1.000000 C
   C          1.0     0.577328      0.783737      0.745476     Biso  1.000000 C
   C          1.0     0.422671      0.283737      0.754522     Biso  1.000000 C
   C          1.0     0.422671      0.216259      0.254523     Biso  1.000000 C
   C          1.0     0.577328      0.716259      0.245478     Biso  1.000000 C
   C          1.0     0.489323      0.882297      0.684232     Biso  1.000000 C
   C          1.0     0.510675      0.382298      0.815768     Biso  1.000000 C
   C          1.0     0.510675      0.117698      0.315768     Biso  1.000000 C
   C          1.0     0.489324      0.617695      0.184231     Biso  1.000000 C
