#======================================================================

# CRYSTAL DATA

#----------------------------------------------------------------------

data_VESTA_phase_1


_chemical_name_common                  '# Quantum Espresso PWSCF output snapsh'
_cell_length_a                         7.89582
_cell_length_b                         12.40785
_cell_length_c                         5.65331
_cell_angle_alpha                      89.99997
_cell_angle_beta                       101.78161
_cell_angle_gamma                      90.00003
_space_group_name_H-M_alt              'P 1'
_space_group_IT_number                 1

loop_
_space_group_symop_operation_xyz
   'x, y, z'

loop_
   _atom_site_label
   _atom_site_occupancy
   _atom_site_fract_x
   _atom_site_fract_y
   _atom_site_fract_z
   _atom_site_adp_type
   _atom_site_B_iso_or_equiv
   _atom_site_type_symbol
   K          1.0     0.906003      0.469542      0.219565     Biso  1.000000 K
   K          1.0     0.093995      0.969542      0.280435     Biso  1.000000 K
   K          1.0     0.093995      0.530454      0.780434     Biso  1.000000 K
   K          1.0     0.906004      0.030454      0.719566     Biso  1.000000 K
   H          1.0     0.793428      0.373028      0.661373     Biso  1.000000 H
   H          1.0     0.206572      0.873026      0.838625     Biso  1.000000 H
   H          1.0     0.206572      0.626967      0.338626     Biso  1.000000 H
   H          1.0     0.793427      0.126967      0.161372     Biso  1.000000 H
   H          1.0     0.777339      0.496800      0.718084     Biso  1.000000 H
   H          1.0     0.222662      0.996800      0.781916     Biso  1.000000 H
   H          1.0     0.222663      0.503196      0.281916     Biso  1.000000 H
   H          1.0     0.777338      0.003196      0.218084     Biso  1.000000 H
   H          1.0     0.644133      0.992867      0.900330     Biso  1.000000 H
   H          1.0     0.355867      0.492867      0.599669     Biso  1.000000 H
   H          1.0     0.355868      0.007127      0.099671     Biso  1.000000 H
   H          1.0     0.644132      0.507128      0.400329     Biso  1.000000 H
   O          1.0     0.746232      0.582925      0.894963     Biso  1.000000 O
   O          1.0     0.253767      0.082925      0.605036     Biso  1.000000 O
   O          1.0     0.253767      0.417071      0.105037     Biso  1.000000 O
   O          1.0     0.746232      0.917071      0.394961     Biso  1.000000 O
   O          1.0     0.800553      0.444578      0.595723     Biso  1.000000 O
   O          1.0     0.199446      0.944578      0.904276     Biso  1.000000 O
   O          1.0     0.199445      0.555418      0.404276     Biso  1.000000 O
   O          1.0     0.800554      0.055417      0.095722     Biso  1.000000 O
   O          1.0     0.331250      0.747292      0.530919     Biso  1.000000 O
   O          1.0     0.668749      0.247293      0.969079     Biso  1.000000 O
   O          1.0     0.668748      0.252702      0.469080     Biso  1.000000 O
   O          1.0     0.331251      0.752703      0.030918     Biso  1.000000 O
   N          1.0     0.820973      0.675437      0.929808     Biso  1.000000 N
   N          1.0     0.179027      0.175439      0.570190     Biso  1.000000 N
   N          1.0     0.179028      0.324558      0.070192     Biso  1.000000 N
   N          1.0     0.820973      0.824558      0.429807     Biso  1.000000 N
   N          1.0     0.984765      0.689060      0.048606     Biso  1.000000 N
   N          1.0     0.015236      0.189060      0.451394     Biso  1.000000 N
   N          1.0     0.015236      0.310935      0.951395     Biso  1.000000 N
   N          1.0     0.984766      0.810935      0.548605     Biso  1.000000 N
   N          1.0     0.008215      0.792772      0.064871     Biso  1.000000 N
   N          1.0     0.991784      0.292773      0.435128     Biso  1.000000 N
   N          1.0     0.991784      0.207222      0.935128     Biso  1.000000 N
   N          1.0     0.008215      0.707223      0.564871     Biso  1.000000 N
   N          1.0     0.864601      0.846818      0.960313     Biso  1.000000 N
   N          1.0     0.135397      0.346817      0.539685     Biso  1.000000 N
   N          1.0     0.135397      0.153178      0.039685     Biso  1.000000 N
   N          1.0     0.864601      0.653176      0.460313     Biso  1.000000 N
   N          1.0     0.480563      0.702088      0.653339     Biso  1.000000 N
   N          1.0     0.519436      0.202090      0.846660     Biso  1.000000 N
   N          1.0     0.519436      0.297906      0.346659     Biso  1.000000 N
   N          1.0     0.480563      0.797907      0.153341     Biso  1.000000 N
   N          1.0     0.337914      0.858876      0.543453     Biso  1.000000 N
   N          1.0     0.662087      0.358876      0.956546     Biso  1.000000 N
   N          1.0     0.662087      0.141118      0.456547     Biso  1.000000 N
   N          1.0     0.337914      0.641119      0.043452     Biso  1.000000 N
   N          1.0     0.545292      0.979607      0.754934     Biso  1.000000 N
   N          1.0     0.454707      0.479607      0.745064     Biso  1.000000 N
   N          1.0     0.454707      0.020389      0.245064     Biso  1.000000 N
   N          1.0     0.545292      0.520389      0.254933     Biso  1.000000 N
   H          1.0     0.464840      0.043859      0.712020     Biso  1.000000 H
   H          1.0     0.535160      0.543859      0.787978     Biso  1.000000 H
   H          1.0     0.535160      0.956137      0.287979     Biso  1.000000 H
   H          1.0     0.464840      0.456137      0.212020     Biso  1.000000 H
   C          1.0     0.748198      0.772070      0.875276     Biso  1.000000 C
   C          1.0     0.251801      0.272069      0.624724     Biso  1.000000 C
   C          1.0     0.251801      0.227926      0.124723     Biso  1.000000 C
   C          1.0     0.748198      0.727926      0.375276     Biso  1.000000 C
   C          1.0     0.577275      0.783834      0.745277     Biso  1.000000 C
   C          1.0     0.422725      0.283834      0.754723     Biso  1.000000 C
   C          1.0     0.422725      0.216162      0.254722     Biso  1.000000 C
   C          1.0     0.577275      0.716162      0.245277     Biso  1.000000 C
   C          1.0     0.489150      0.882465      0.683733     Biso  1.000000 C
   C          1.0     0.510849      0.382464      0.816267     Biso  1.000000 C
   C          1.0     0.510849      0.117530      0.316268     Biso  1.000000 C
   C          1.0     0.489151      0.617529      0.183732     Biso  1.000000 C
