#======================================================================

# CRYSTAL DATA

#----------------------------------------------------------------------

data_VESTA_phase_1


_chemical_name_common                  '# Quantum Espresso PWSCF output snapsh'
_cell_length_a                         7.78525
_cell_length_b                         12.30127
_cell_length_c                         5.52721
_cell_angle_alpha                      89.99974
_cell_angle_beta                       101.67694
_cell_angle_gamma                      90.00034
_space_group_name_H-M_alt              'P 1'
_space_group_IT_number                 1

loop_
_space_group_symop_operation_xyz
   'x, y, z'

loop_
   _atom_site_label
   _atom_site_occupancy
   _atom_site_fract_x
   _atom_site_fract_y
   _atom_site_fract_z
   _atom_site_adp_type
   _atom_site_B_iso_or_equiv
   _atom_site_type_symbol
   K          1.0     0.907840      0.470737      0.219025     Biso  1.000000 K
   K          1.0     0.092176      0.970735      0.280984     Biso  1.000000 K
   K          1.0     0.092166      0.529255      0.780976     Biso  1.000000 K
   K          1.0     0.907829      0.029257      0.719018     Biso  1.000000 K
   H          1.0     0.794890      0.371674      0.667055     Biso  1.000000 H
   H          1.0     0.205101      0.871681      0.832913     Biso  1.000000 H
   H          1.0     0.205115      0.628317      0.332946     Biso  1.000000 H
   H          1.0     0.794904      0.128310      0.167087     Biso  1.000000 H
   H          1.0     0.777037      0.496745      0.720780     Biso  1.000000 H
   H          1.0     0.222961      0.996754      0.779219     Biso  1.000000 H
   H          1.0     0.222968      0.503246      0.279221     Biso  1.000000 H
   H          1.0     0.777044      0.003237      0.220782     Biso  1.000000 H
   H          1.0     0.645986      0.993317      0.904110     Biso  1.000000 H
   H          1.0     0.354023      0.493310      0.595910     Biso  1.000000 H
   H          1.0     0.354019      0.006675      0.095891     Biso  1.000000 H
   H          1.0     0.645983      0.506682      0.404091     Biso  1.000000 H
   O          1.0     0.745108      0.583907      0.895168     Biso  1.000000 O
   O          1.0     0.254907      0.083909      0.604832     Biso  1.000000 O
   O          1.0     0.254897      0.416084      0.104832     Biso  1.000000 O
   O          1.0     0.745098      0.916082      0.395169     Biso  1.000000 O
   O          1.0     0.799963      0.443355      0.596919     Biso  1.000000 O
   O          1.0     0.200030      0.943358      0.903069     Biso  1.000000 O
   O          1.0     0.200042      0.556637      0.403083     Biso  1.000000 O
   O          1.0     0.799976      0.056633      0.096932     Biso  1.000000 O
   O          1.0     0.329110      0.747120      0.524060     Biso  1.000000 O
   O          1.0     0.670906      0.247120      0.975953     Biso  1.000000 O
   O          1.0     0.670895      0.252871      0.475940     Biso  1.000000 O
   O          1.0     0.329101      0.752871      0.024048     Biso  1.000000 O
   N          1.0     0.822657      0.676301      0.931450     Biso  1.000000 N
   N          1.0     0.177358      0.176302      0.568551     Biso  1.000000 N
   N          1.0     0.177348      0.323691      0.068551     Biso  1.000000 N
   N          1.0     0.822647      0.823689      0.431449     Biso  1.000000 N
   N          1.0     0.988339      0.689535      0.052559     Biso  1.000000 N
   N          1.0     0.011676      0.189536      0.447443     Biso  1.000000 N
   N          1.0     0.011666      0.310457      0.947442     Biso  1.000000 N
   N          1.0     0.988329      0.810455      0.552558     Biso  1.000000 N
   N          1.0     0.012198      0.793792      0.070226     Biso  1.000000 N
   N          1.0     0.987817      0.293793      0.429784     Biso  1.000000 N
   N          1.0     0.987808      0.206199      0.929775     Biso  1.000000 N
   N          1.0     0.012188      0.706198      0.570217     Biso  1.000000 N
   N          1.0     0.867018      0.848581      0.963792     Biso  1.000000 N
   N          1.0     0.132996      0.348582      0.536223     Biso  1.000000 N
   N          1.0     0.132988      0.151411      0.036209     Biso  1.000000 N
   N          1.0     0.867008      0.651410      0.463777     Biso  1.000000 N
   N          1.0     0.479969      0.701585      0.649862     Biso  1.000000 N
   N          1.0     0.520047      0.201584      0.850147     Biso  1.000000 N
   N          1.0     0.520036      0.298407      0.350140     Biso  1.000000 N
   N          1.0     0.479958      0.798407      0.149854     Biso  1.000000 N
   N          1.0     0.336056      0.859322      0.535597     Biso  1.000000 N
   N          1.0     0.663957      0.359322      0.964433     Biso  1.000000 N
   N          1.0     0.663949      0.140670      0.464404     Biso  1.000000 N
   N          1.0     0.336049      0.640669      0.035569     Biso  1.000000 N
   N          1.0     0.545051      0.980304      0.756761     Biso  1.000000 N
   N          1.0     0.454960      0.480302      0.743257     Biso  1.000000 N
   N          1.0     0.454953      0.019687      0.243239     Biso  1.000000 N
   N          1.0     0.545046      0.519688      0.256746     Biso  1.000000 N
   H          1.0     0.465283      0.045870      0.715207     Biso  1.000000 H
   H          1.0     0.534728      0.545870      0.784794     Biso  1.000000 H
   H          1.0     0.534722      0.954121      0.284795     Biso  1.000000 H
   H          1.0     0.465278      0.454122      0.215207     Biso  1.000000 H
   C          1.0     0.749438      0.773496      0.876635     Biso  1.000000 C
   C          1.0     0.250578      0.273497      0.623379     Biso  1.000000 C
   C          1.0     0.250567      0.226496      0.123366     Biso  1.000000 C
   C          1.0     0.749430      0.726495      0.376623     Biso  1.000000 C
   C          1.0     0.576889      0.784230      0.744005     Biso  1.000000 C
   C          1.0     0.423123      0.284230      0.756023     Biso  1.000000 C
   C          1.0     0.423117      0.215761      0.255997     Biso  1.000000 C
   C          1.0     0.576880      0.715761      0.243977     Biso  1.000000 C
   C          1.0     0.488164      0.883222      0.680811     Biso  1.000000 C
   C          1.0     0.511847      0.383223      0.819224     Biso  1.000000 C
   C          1.0     0.511842      0.116771      0.319191     Biso  1.000000 C
   C          1.0     0.488157      0.616771      0.180775     Biso  1.000000 C
