#======================================================================

# CRYSTAL DATA

#----------------------------------------------------------------------

data_VESTA_phase_1


_chemical_name_common                  '# Quantum Espresso PWSCF output snapsh'
_cell_length_a                         7.76823
_cell_length_b                         12.28491
_cell_length_c                         5.50870
_cell_angle_alpha                      89.99980
_cell_angle_beta                       101.65623
_cell_angle_gamma                      90.00042
_space_group_name_H-M_alt              'P 1'
_space_group_IT_number                 1

loop_
_space_group_symop_operation_xyz
   'x, y, z'

loop_
   _atom_site_label
   _atom_site_occupancy
   _atom_site_fract_x
   _atom_site_fract_y
   _atom_site_fract_z
   _atom_site_adp_type
   _atom_site_B_iso_or_equiv
   _atom_site_type_symbol
   K          1.0     0.908098      0.470921      0.218932     Biso  1.000000 K
   K          1.0     0.091917      0.970919      0.281076     Biso  1.000000 K
   K          1.0     0.091907      0.529068      0.781070     Biso  1.000000 K
   K          1.0     0.908088      0.029070      0.718925     Biso  1.000000 K
   H          1.0     0.795213      0.371489      0.668032     Biso  1.000000 H
   H          1.0     0.204778      0.871496      0.831937     Biso  1.000000 H
   H          1.0     0.204792      0.628499      0.331969     Biso  1.000000 H
   H          1.0     0.795227      0.128493      0.168064     Biso  1.000000 H
   H          1.0     0.777007      0.496756      0.721128     Biso  1.000000 H
   H          1.0     0.222992      0.996764      0.778872     Biso  1.000000 H
   H          1.0     0.222998      0.503232      0.278873     Biso  1.000000 H
   H          1.0     0.777012      0.003225      0.221129     Biso  1.000000 H
   H          1.0     0.646255      0.993359      0.904690     Biso  1.000000 H
   H          1.0     0.353752      0.493352      0.595329     Biso  1.000000 H
   H          1.0     0.353750      0.006630      0.095311     Biso  1.000000 H
   H          1.0     0.646253      0.506637      0.404673     Biso  1.000000 H
   O          1.0     0.744907      0.584046      0.895173     Biso  1.000000 O
   O          1.0     0.255107      0.084048      0.604828     Biso  1.000000 O
   O          1.0     0.255098      0.415942      0.104828     Biso  1.000000 O
   O          1.0     0.744898      0.915940      0.395174     Biso  1.000000 O
   O          1.0     0.799873      0.443168      0.597076     Biso  1.000000 O
   O          1.0     0.200120      0.943171      0.902912     Biso  1.000000 O
   O          1.0     0.200131      0.556820      0.402925     Biso  1.000000 O
   O          1.0     0.799884      0.056818      0.097089     Biso  1.000000 O
   O          1.0     0.328732      0.747107      0.523019     Biso  1.000000 O
   O          1.0     0.671283      0.247107      0.976994     Biso  1.000000 O
   O          1.0     0.671273      0.252882      0.476983     Biso  1.000000 O
   O          1.0     0.328722      0.752882      0.023007     Biso  1.000000 O
   N          1.0     0.822866      0.676424      0.931714     Biso  1.000000 N
   N          1.0     0.177147      0.176426      0.568288     Biso  1.000000 N
   N          1.0     0.177138      0.323564      0.068287     Biso  1.000000 N
   N          1.0     0.822857      0.823563      0.431714     Biso  1.000000 N
   N          1.0     0.988829      0.689614      0.053185     Biso  1.000000 N
   N          1.0     0.011185      0.189615      0.446817     Biso  1.000000 N
   N          1.0     0.011176      0.310375      0.946816     Biso  1.000000 N
   N          1.0     0.988820      0.810373      0.553184     Biso  1.000000 N
   N          1.0     0.012721      0.793957      0.071074     Biso  1.000000 N
   N          1.0     0.987293      0.293958      0.428936     Biso  1.000000 N
   N          1.0     0.987284      0.206032      0.928927     Biso  1.000000 N
   N          1.0     0.012712      0.706030      0.571065     Biso  1.000000 N
   N          1.0     0.867298      0.848846      0.964337     Biso  1.000000 N
   N          1.0     0.132716      0.348847      0.535679     Biso  1.000000 N
   N          1.0     0.132707      0.151143      0.035665     Biso  1.000000 N
   N          1.0     0.867289      0.651142      0.464322     Biso  1.000000 N
   N          1.0     0.479812      0.701501      0.649329     Biso  1.000000 N
   N          1.0     0.520204      0.201501      0.850681     Biso  1.000000 N
   N          1.0     0.520192      0.298487      0.350672     Biso  1.000000 N
   N          1.0     0.479801      0.798488      0.149320     Biso  1.000000 N
   N          1.0     0.335760      0.859398      0.534405     Biso  1.000000 N
   N          1.0     0.664252      0.359399      0.965620     Biso  1.000000 N
   N          1.0     0.664245      0.140591      0.465596     Biso  1.000000 N
   N          1.0     0.335752      0.640590      0.034381     Biso  1.000000 N
   N          1.0     0.545025      0.980399      0.757038     Biso  1.000000 N
   N          1.0     0.454984      0.480399      0.742976     Biso  1.000000 N
   N          1.0     0.454980      0.019590      0.242964     Biso  1.000000 N
   N          1.0     0.545020      0.519591      0.257024     Biso  1.000000 N
   H          1.0     0.465392      0.046180      0.715738     Biso  1.000000 H
   H          1.0     0.534617      0.546180      0.784261     Biso  1.000000 H
   H          1.0     0.534613      0.953808      0.284264     Biso  1.000000 H
   H          1.0     0.465387      0.453809      0.215740     Biso  1.000000 H
   C          1.0     0.749564      0.773699      0.876850     Biso  1.000000 C
   C          1.0     0.250449      0.273700      0.623164     Biso  1.000000 C
   C          1.0     0.250440      0.226289      0.123151     Biso  1.000000 C
   C          1.0     0.749555      0.726288      0.376836     Biso  1.000000 C
   C          1.0     0.576775      0.784275      0.743816     Biso  1.000000 C
   C          1.0     0.423237      0.284276      0.756212     Biso  1.000000 C
   C          1.0     0.423230      0.215714      0.256186     Biso  1.000000 C
   C          1.0     0.576769      0.715713      0.243790     Biso  1.000000 C
   C          1.0     0.487995      0.883333      0.680366     Biso  1.000000 C
   C          1.0     0.512017      0.383331      0.819667     Biso  1.000000 C
   C          1.0     0.512009      0.116655      0.319634     Biso  1.000000 C
   C          1.0     0.487989      0.616655      0.180336     Biso  1.000000 C
