#======================================================================

# CRYSTAL DATA

#----------------------------------------------------------------------

data_VESTA_phase_1


_chemical_name_common                  '# Quantum Espresso PWSCF output snapsh'
_cell_length_a                         8.73267
_cell_length_b                         12.98314
_cell_length_c                         6.45527
_cell_angle_alpha                      89.99998
_cell_angle_beta                       104.50324
_cell_angle_gamma                      90
_space_group_name_H-M_alt              'P 1'
_space_group_IT_number                 1

loop_
_space_group_symop_operation_xyz
   'x, y, z'

loop_
   _atom_site_label
   _atom_site_occupancy
   _atom_site_fract_x
   _atom_site_fract_y
   _atom_site_fract_z
   _atom_site_adp_type
   _atom_site_B_iso_or_equiv
   _atom_site_type_symbol
   K          1.0     0.884225      0.460452      0.227692     Biso  1.000000 K
   K          1.0     0.115769      0.960452      0.272305     Biso  1.000000 K
   K          1.0     0.115769      0.539535      0.772305     Biso  1.000000 K
   K          1.0     0.884225      0.039535      0.727692     Biso  1.000000 K
   H          1.0     0.812458      0.384614      0.662487     Biso  1.000000 H
   H          1.0     0.187535      0.884614      0.837511     Biso  1.000000 H
   H          1.0     0.187535      0.615374      0.337511     Biso  1.000000 H
   H          1.0     0.812458      0.115373      0.162487     Biso  1.000000 H
   H          1.0     0.787226      0.500613      0.714767     Biso  1.000000 H
   H          1.0     0.212768      0.000613      0.785231     Biso  1.000000 H
   H          1.0     0.212768      0.499374      0.285231     Biso  1.000000 H
   H          1.0     0.787226      0.999374      0.214767     Biso  1.000000 H
   H          1.0     0.640739      0.981530      0.891296     Biso  1.000000 H
   H          1.0     0.359255      0.481530      0.608702     Biso  1.000000 H
   H          1.0     0.359255      0.018457      0.108702     Biso  1.000000 H
   H          1.0     0.640739      0.518457      0.391295     Biso  1.000000 H
   O          1.0     0.745673      0.579455      0.890204     Biso  1.000000 O
   O          1.0     0.254321      0.079456      0.609793     Biso  1.000000 O
   O          1.0     0.254321      0.420532      0.109794     Biso  1.000000 O
   O          1.0     0.745673      0.920532      0.390204     Biso  1.000000 O
   O          1.0     0.814777      0.454049      0.606538     Biso  1.000000 O
   O          1.0     0.185217      0.954049      0.893459     Biso  1.000000 O
   O          1.0     0.185217      0.545938      0.393459     Biso  1.000000 O
   O          1.0     0.814777      0.045938      0.106539     Biso  1.000000 O
   O          1.0     0.343370      0.748154      0.559316     Biso  1.000000 O
   O          1.0     0.656624      0.248154      0.940682     Biso  1.000000 O
   O          1.0     0.656624      0.251833      0.440681     Biso  1.000000 O
   O          1.0     0.343370      0.751833      0.059316     Biso  1.000000 O
   N          1.0     0.809151      0.670918      0.915967     Biso  1.000000 N
   N          1.0     0.190843      0.170917      0.584031     Biso  1.000000 N
   N          1.0     0.190843      0.329070      0.084031     Biso  1.000000 N
   N          1.0     0.809151      0.829070      0.415967     Biso  1.000000 N
   N          1.0     0.962972      0.686718      0.017906     Biso  1.000000 N
   N          1.0     0.037022      0.186718      0.482091     Biso  1.000000 N
   N          1.0     0.037022      0.313269      0.982091     Biso  1.000000 N
   N          1.0     0.962972      0.813269      0.517907     Biso  1.000000 N
   N          1.0     0.983858      0.787427      0.025072     Biso  1.000000 N
   N          1.0     0.016136      0.287427      0.474926     Biso  1.000000 N
   N          1.0     0.016136      0.212560      0.974926     Biso  1.000000 N
   N          1.0     0.983858      0.712561      0.525071     Biso  1.000000 N
   N          1.0     0.848961      0.837303      0.931108     Biso  1.000000 N
   N          1.0     0.151033      0.337303      0.568890     Biso  1.000000 N
   N          1.0     0.151033      0.162684      0.068890     Biso  1.000000 N
   N          1.0     0.848961      0.662685      0.431107     Biso  1.000000 N
   N          1.0     0.483671      0.703285      0.662163     Biso  1.000000 N
   N          1.0     0.516324      0.203285      0.837835     Biso  1.000000 N
   N          1.0     0.516323      0.296702      0.337834     Biso  1.000000 N
   N          1.0     0.483670      0.796702      0.162163     Biso  1.000000 N
   N          1.0     0.350282      0.855695      0.582660     Biso  1.000000 N
   N          1.0     0.649712      0.355695      0.917338     Biso  1.000000 N
   N          1.0     0.649712      0.144292      0.417337     Biso  1.000000 N
   N          1.0     0.350282      0.644292      0.082661     Biso  1.000000 N
   N          1.0     0.550141      0.971678      0.757181     Biso  1.000000 N
   N          1.0     0.449852      0.471677      0.742817     Biso  1.000000 N
   N          1.0     0.449852      0.028309      0.242817     Biso  1.000000 N
   N          1.0     0.550143      0.528310      0.257182     Biso  1.000000 N
   H          1.0     0.470852      0.031196      0.723083     Biso  1.000000 H
   H          1.0     0.529142      0.531196      0.776915     Biso  1.000000 H
   H          1.0     0.529141      0.968791      0.276915     Biso  1.000000 H
   H          1.0     0.470852      0.468791      0.223082     Biso  1.000000 H
   C          1.0     0.739553      0.764166      0.861939     Biso  1.000000 C
   C          1.0     0.260442      0.264166      0.638059     Biso  1.000000 C
   C          1.0     0.260441      0.235821      0.138059     Biso  1.000000 C
   C          1.0     0.739553      0.735821      0.361939     Biso  1.000000 C
   C          1.0     0.578176      0.779623      0.747658     Biso  1.000000 C
   C          1.0     0.421817      0.279623      0.752339     Biso  1.000000 C
   C          1.0     0.421818      0.220364      0.252340     Biso  1.000000 C
   C          1.0     0.578176      0.720364      0.247658     Biso  1.000000 C
   C          1.0     0.495005      0.876250      0.700160     Biso  1.000000 C
   C          1.0     0.504990      0.376251      0.799838     Biso  1.000000 C
   C          1.0     0.504989      0.123737      0.299838     Biso  1.000000 C
   C          1.0     0.495004      0.623737      0.200159     Biso  1.000000 C
