#======================================================================

# CRYSTAL DATA

#----------------------------------------------------------------------

data_VESTA_phase_1


_chemical_name_common                  '# Quantum Espresso PWSCF output snapsh'
_cell_length_a                         7.73460
_cell_length_b                         12.25515
_cell_length_c                         5.47301
_cell_angle_alpha                      90.00028
_cell_angle_beta                       101.61750
_cell_angle_gamma                      90.00001
_space_group_name_H-M_alt              'P 1'
_space_group_IT_number                 1

loop_
_space_group_symop_operation_xyz
   'x, y, z'

loop_
   _atom_site_label
   _atom_site_occupancy
   _atom_site_fract_x
   _atom_site_fract_y
   _atom_site_fract_z
   _atom_site_adp_type
   _atom_site_B_iso_or_equiv
   _atom_site_type_symbol
   K          1.0     0.908504      0.471271      0.218713     Biso  1.000000 K
   K          1.0     0.091501      0.971271      0.281291     Biso  1.000000 K
   K          1.0     0.091494      0.528717      0.781287     Biso  1.000000 K
   K          1.0     0.908497      0.028717      0.718708     Biso  1.000000 K
   H          1.0     0.796244      0.371337      0.670929     Biso  1.000000 H
   H          1.0     0.203745      0.871340      0.829048     Biso  1.000000 H
   H          1.0     0.203754      0.628650      0.329070     Biso  1.000000 H
   H          1.0     0.796252      0.128648      0.170952     Biso  1.000000 H
   H          1.0     0.776938      0.497000      0.721565     Biso  1.000000 H
   H          1.0     0.223055      0.997004      0.778434     Biso  1.000000 H
   H          1.0     0.223059      0.502988      0.278434     Biso  1.000000 H
   H          1.0     0.776942      0.002984      0.221565     Biso  1.000000 H
   H          1.0     0.646667      0.993363      0.905739     Biso  1.000000 H
   H          1.0     0.353331      0.493358      0.594270     Biso  1.000000 H
   H          1.0     0.353330      0.006625      0.094260     Biso  1.000000 H
   H          1.0     0.646667      0.506630      0.405729     Biso  1.000000 H
   O          1.0     0.744614      0.584380      0.895189     Biso  1.000000 O
   O          1.0     0.255389      0.084381      0.604817     Biso  1.000000 O
   O          1.0     0.255383      0.415607      0.104810     Biso  1.000000 O
   O          1.0     0.744609      0.915607      0.395183     Biso  1.000000 O
   O          1.0     0.799649      0.442854      0.597485     Biso  1.000000 O
   O          1.0     0.200341      0.942854      0.902506     Biso  1.000000 O
   O          1.0     0.200348      0.557134      0.402514     Biso  1.000000 O
   O          1.0     0.799656      0.057133      0.097493     Biso  1.000000 O
   O          1.0     0.328054      0.747001      0.520888     Biso  1.000000 O
   O          1.0     0.671951      0.247002      0.979119     Biso  1.000000 O
   O          1.0     0.671943      0.252987      0.479111     Biso  1.000000 O
   O          1.0     0.328046      0.752985      0.020881     Biso  1.000000 O
   N          1.0     0.823377      0.676715      0.932193     Biso  1.000000 N
   N          1.0     0.176627      0.176716      0.567811     Biso  1.000000 N
   N          1.0     0.176620      0.323273      0.067807     Biso  1.000000 N
   N          1.0     0.823370      0.823273      0.432188     Biso  1.000000 N
   N          1.0     0.989901      0.689846      0.054367     Biso  1.000000 N
   N          1.0     0.010103      0.189847      0.445635     Biso  1.000000 N
   N          1.0     0.010096      0.310141      0.945632     Biso  1.000000 N
   N          1.0     0.989894      0.810141      0.554364     Biso  1.000000 N
   N          1.0     0.013825      0.794341      0.072607     Biso  1.000000 N
   N          1.0     0.986180      0.294342      0.427397     Biso  1.000000 N
   N          1.0     0.986172      0.205646      0.927392     Biso  1.000000 N
   N          1.0     0.013818      0.705646      0.572602     Biso  1.000000 N
   N          1.0     0.867901      0.849388      0.965231     Biso  1.000000 N
   N          1.0     0.132103      0.349388      0.534777     Biso  1.000000 N
   N          1.0     0.132096      0.150600      0.034768     Biso  1.000000 N
   N          1.0     0.867894      0.650600      0.465223     Biso  1.000000 N
   N          1.0     0.479592      0.701301      0.648213     Biso  1.000000 N
   N          1.0     0.520413      0.201302      0.851795     Biso  1.000000 N
   N          1.0     0.520405      0.298687      0.351786     Biso  1.000000 N
   N          1.0     0.479584      0.798686      0.148204     Biso  1.000000 N
   N          1.0     0.335189      0.859450      0.531971     Biso  1.000000 N
   N          1.0     0.664814      0.359451      0.968040     Biso  1.000000 N
   N          1.0     0.664808      0.140538      0.468028     Biso  1.000000 N
   N          1.0     0.335183      0.640537      0.031959     Biso  1.000000 N
   N          1.0     0.544947      0.980523      0.757403     Biso  1.000000 N
   N          1.0     0.455055      0.480522      0.742602     Biso  1.000000 N
   N          1.0     0.455050      0.019465      0.242596     Biso  1.000000 N
   N          1.0     0.544943      0.519466      0.257397     Biso  1.000000 N
   H          1.0     0.465523      0.046687      0.716659     Biso  1.000000 H
   H          1.0     0.534477      0.546687      0.783335     Biso  1.000000 H
   H          1.0     0.534474      0.953301      0.283340     Biso  1.000000 H
   H          1.0     0.465520      0.453301      0.216664     Biso  1.000000 H
   C          1.0     0.749883      0.774115      0.877162     Biso  1.000000 C
   C          1.0     0.250121      0.274115      0.622850     Biso  1.000000 C
   C          1.0     0.250115      0.225873      0.122839     Biso  1.000000 C
   C          1.0     0.749875      0.725873      0.377148     Biso  1.000000 C
   C          1.0     0.576604      0.784337      0.743352     Biso  1.000000 C
   C          1.0     0.423398      0.284337      0.756669     Biso  1.000000 C
   C          1.0     0.423392      0.215651      0.256647     Biso  1.000000 C
   C          1.0     0.576600      0.715651      0.243331     Biso  1.000000 C
   C          1.0     0.487660      0.883483      0.679379     Biso  1.000000 C
   C          1.0     0.512342      0.383483      0.820637     Biso  1.000000 C
   C          1.0     0.512338      0.116505      0.320621     Biso  1.000000 C
   C          1.0     0.487655      0.616504      0.179362     Biso  1.000000 C
