#======================================================================

# CRYSTAL DATA

#----------------------------------------------------------------------

data_VESTA_phase_1


_chemical_name_common                  '# Quantum Espresso PWSCF output snapsh'
_cell_length_a                         8.60559
_cell_length_b                         12.93874
_cell_length_c                         6.36691
_cell_angle_alpha                      89.99994
_cell_angle_beta                       103.88271
_cell_angle_gamma                      90.00006
_space_group_name_H-M_alt              'P 1'
_space_group_IT_number                 1

loop_
_space_group_symop_operation_xyz
   'x, y, z'

loop_
   _atom_site_label
   _atom_site_occupancy
   _atom_site_fract_x
   _atom_site_fract_y
   _atom_site_fract_z
   _atom_site_adp_type
   _atom_site_B_iso_or_equiv
   _atom_site_type_symbol
   K          1.0     0.887458      0.461664      0.226411     Biso  1.000000 K
   K          1.0     0.112537      0.961663      0.273586     Biso  1.000000 K
   K          1.0     0.112537      0.538330      0.773587     Biso  1.000000 K
   K          1.0     0.887458      0.038330      0.726411     Biso  1.000000 K
   H          1.0     0.808562      0.383460      0.661391     Biso  1.000000 H
   H          1.0     0.191432      0.883459      0.838608     Biso  1.000000 H
   H          1.0     0.191433      0.616535      0.338608     Biso  1.000000 H
   H          1.0     0.808562      0.116534      0.161391     Biso  1.000000 H
   H          1.0     0.785350      0.500445      0.713008     Biso  1.000000 H
   H          1.0     0.214646      0.000446      0.786989     Biso  1.000000 H
   H          1.0     0.214646      0.499548      0.286989     Biso  1.000000 H
   H          1.0     0.785349      0.999548      0.213010     Biso  1.000000 H
   H          1.0     0.639713      0.983226      0.890676     Biso  1.000000 H
   H          1.0     0.360283      0.483226      0.609322     Biso  1.000000 H
   H          1.0     0.360283      0.016767      0.109322     Biso  1.000000 H
   H          1.0     0.639713      0.516767      0.390676     Biso  1.000000 H
   O          1.0     0.746775      0.579682      0.891192     Biso  1.000000 O
   O          1.0     0.253220      0.079682      0.608805     Biso  1.000000 O
   O          1.0     0.253220      0.420311      0.108806     Biso  1.000000 O
   O          1.0     0.746776      0.920312      0.391193     Biso  1.000000 O
   O          1.0     0.811407      0.452775      0.603227     Biso  1.000000 O
   O          1.0     0.188589      0.952775      0.896771     Biso  1.000000 O
   O          1.0     0.188589      0.547218      0.396771     Biso  1.000000 O
   O          1.0     0.811406      0.047218      0.103227     Biso  1.000000 O
   O          1.0     0.342269      0.747834      0.556840     Biso  1.000000 O
   O          1.0     0.657727      0.247834      0.943158     Biso  1.000000 O
   O          1.0     0.657727      0.252159      0.443158     Biso  1.000000 O
   O          1.0     0.342269      0.752159      0.056840     Biso  1.000000 O
   N          1.0     0.810838      0.671388      0.918592     Biso  1.000000 N
   N          1.0     0.189158      0.171387      0.581406     Biso  1.000000 N
   N          1.0     0.189158      0.328606      0.081407     Biso  1.000000 N
   N          1.0     0.810838      0.828606      0.418593     Biso  1.000000 N
   N          1.0     0.965566      0.687091      0.023502     Biso  1.000000 N
   N          1.0     0.034430      0.187092      0.476495     Biso  1.000000 N
   N          1.0     0.034430      0.312902      0.976496     Biso  1.000000 N
   N          1.0     0.965566      0.812901      0.523503     Biso  1.000000 N
   N          1.0     0.986530      0.788027      0.032066     Biso  1.000000 N
   N          1.0     0.013465      0.288027      0.467932     Biso  1.000000 N
   N          1.0     0.013465      0.211967      0.967932     Biso  1.000000 N
   N          1.0     0.986530      0.711967      0.532066     Biso  1.000000 N
   N          1.0     0.850704      0.838170      0.936306     Biso  1.000000 N
   N          1.0     0.149291      0.338171      0.563693     Biso  1.000000 N
   N          1.0     0.149291      0.161823      0.063693     Biso  1.000000 N
   N          1.0     0.850704      0.661823      0.436305     Biso  1.000000 N
   N          1.0     0.483525      0.703130      0.662317     Biso  1.000000 N
   N          1.0     0.516471      0.203130      0.837681     Biso  1.000000 N
   N          1.0     0.516471      0.296863      0.337680     Biso  1.000000 N
   N          1.0     0.483525      0.796863      0.162318     Biso  1.000000 N
   N          1.0     0.348953      0.855732      0.578247     Biso  1.000000 N
   N          1.0     0.651043      0.355731      0.921751     Biso  1.000000 N
   N          1.0     0.651043      0.144262      0.421750     Biso  1.000000 N
   N          1.0     0.348952      0.644262      0.078248     Biso  1.000000 N
   N          1.0     0.549319      0.972539      0.754829     Biso  1.000000 N
   N          1.0     0.450676      0.472539      0.745170     Biso  1.000000 N
   N          1.0     0.450675      0.027454      0.245169     Biso  1.000000 N
   N          1.0     0.549320      0.527454      0.254829     Biso  1.000000 N
   H          1.0     0.469233      0.032205      0.718341     Biso  1.000000 H
   H          1.0     0.530762      0.532206      0.781657     Biso  1.000000 H
   H          1.0     0.530761      0.967789      0.281658     Biso  1.000000 H
   H          1.0     0.469234      0.467789      0.218340     Biso  1.000000 H
   C          1.0     0.740715      0.764868      0.864389     Biso  1.000000 C
   C          1.0     0.259282      0.264868      0.635609     Biso  1.000000 C
   C          1.0     0.259281      0.235125      0.135609     Biso  1.000000 C
   C          1.0     0.740715      0.735125      0.364389     Biso  1.000000 C
   C          1.0     0.578299      0.780034      0.747859     Biso  1.000000 C
   C          1.0     0.421696      0.280034      0.752139     Biso  1.000000 C
   C          1.0     0.421697      0.219959      0.252139     Biso  1.000000 C
   C          1.0     0.578299      0.719959      0.247859     Biso  1.000000 C
   C          1.0     0.494411      0.876770      0.697880     Biso  1.000000 C
   C          1.0     0.505585      0.376771      0.802118     Biso  1.000000 C
   C          1.0     0.505585      0.123223      0.302119     Biso  1.000000 C
   C          1.0     0.494411      0.623223      0.197879     Biso  1.000000 C
