#======================================================================

# CRYSTAL DATA

#----------------------------------------------------------------------

data_VESTA_phase_1


_chemical_name_common                  '# Quantum Espresso PWSCF output snapsh'
_cell_length_a                         8.42426
_cell_length_b                         12.85753
_cell_length_c                         6.22912
_cell_angle_alpha                      89.99996
_cell_angle_beta                       103.08386
_cell_angle_gamma                      90
_space_group_name_H-M_alt              'P 1'
_space_group_IT_number                 1

loop_
_space_group_symop_operation_xyz
   'x, y, z'

loop_
   _atom_site_label
   _atom_site_occupancy
   _atom_site_fract_x
   _atom_site_fract_y
   _atom_site_fract_z
   _atom_site_adp_type
   _atom_site_B_iso_or_equiv
   _atom_site_type_symbol
   K          1.0     0.892300      0.463524      0.224361     Biso  1.000000 K
   K          1.0     0.107697      0.963524      0.275637     Biso  1.000000 K
   K          1.0     0.107697      0.536472      0.775637     Biso  1.000000 K
   K          1.0     0.892300      0.036471      0.724361     Biso  1.000000 K
   H          1.0     0.803125      0.381690      0.660092     Biso  1.000000 H
   H          1.0     0.196871      0.881689      0.839907     Biso  1.000000 H
   H          1.0     0.196871      0.618307      0.339907     Biso  1.000000 H
   H          1.0     0.803125      0.118306      0.160092     Biso  1.000000 H
   H          1.0     0.782742      0.500173      0.710773     Biso  1.000000 H
   H          1.0     0.217255      0.000174      0.789225     Biso  1.000000 H
   H          1.0     0.217256      0.499822      0.289224     Biso  1.000000 H
   H          1.0     0.782741      0.999822      0.210774     Biso  1.000000 H
   H          1.0     0.638685      0.985943      0.890131     Biso  1.000000 H
   H          1.0     0.361312      0.485943      0.609867     Biso  1.000000 H
   H          1.0     0.361312      0.014052      0.109867     Biso  1.000000 H
   H          1.0     0.638685      0.514052      0.390131     Biso  1.000000 H
   O          1.0     0.748462      0.580150      0.892277     Biso  1.000000 O
   O          1.0     0.251535      0.080151      0.607720     Biso  1.000000 O
   O          1.0     0.251534      0.419845      0.107720     Biso  1.000000 O
   O          1.0     0.748463      0.919845      0.392278     Biso  1.000000 O
   O          1.0     0.806893      0.450948      0.598817     Biso  1.000000 O
   O          1.0     0.193104      0.950948      0.901181     Biso  1.000000 O
   O          1.0     0.193104      0.549047      0.401181     Biso  1.000000 O
   O          1.0     0.806893      0.049047      0.098817     Biso  1.000000 O
   O          1.0     0.340264      0.747435      0.553170     Biso  1.000000 O
   O          1.0     0.659734      0.247435      0.946828     Biso  1.000000 O
   O          1.0     0.659734      0.252560      0.446828     Biso  1.000000 O
   O          1.0     0.340264      0.752560      0.053170     Biso  1.000000 O
   N          1.0     0.813538      0.672244      0.921950     Biso  1.000000 N
   N          1.0     0.186460      0.172243      0.578048     Biso  1.000000 N
   N          1.0     0.186460      0.327752      0.078049     Biso  1.000000 N
   N          1.0     0.813538      0.827752      0.421950     Biso  1.000000 N
   N          1.0     0.969783      0.687794      0.030833     Biso  1.000000 N
   N          1.0     0.030215      0.187794      0.469166     Biso  1.000000 N
   N          1.0     0.030215      0.312201      0.969166     Biso  1.000000 N
   N          1.0     0.969783      0.812201      0.530832     Biso  1.000000 N
   N          1.0     0.990830      0.789152      0.041293     Biso  1.000000 N
   N          1.0     0.009167      0.289152      0.458705     Biso  1.000000 N
   N          1.0     0.009167      0.210844      0.958706     Biso  1.000000 N
   N          1.0     0.990830      0.710844      0.541293     Biso  1.000000 N
   N          1.0     0.853428      0.839754      0.943148     Biso  1.000000 N
   N          1.0     0.146568      0.339754      0.556852     Biso  1.000000 N
   N          1.0     0.146568      0.160241      0.056852     Biso  1.000000 N
   N          1.0     0.853428      0.660241      0.443147     Biso  1.000000 N
   N          1.0     0.483125      0.702936      0.662330     Biso  1.000000 N
   N          1.0     0.516873      0.202936      0.837667     Biso  1.000000 N
   N          1.0     0.516873      0.297059      0.337667     Biso  1.000000 N
   N          1.0     0.483125      0.797059      0.162331     Biso  1.000000 N
   N          1.0     0.346684      0.855947      0.571764     Biso  1.000000 N
   N          1.0     0.653313      0.355946      0.928235     Biso  1.000000 N
   N          1.0     0.653313      0.144050      0.428234     Biso  1.000000 N
   N          1.0     0.346684      0.644049      0.071764     Biso  1.000000 N
   N          1.0     0.548073      0.974025      0.751834     Biso  1.000000 N
   N          1.0     0.451923      0.474024      0.748164     Biso  1.000000 N
   N          1.0     0.451923      0.025971      0.248163     Biso  1.000000 N
   N          1.0     0.548073      0.525971      0.251835     Biso  1.000000 N
   H          1.0     0.466960      0.034025      0.712044     Biso  1.000000 H
   H          1.0     0.533037      0.534025      0.787954     Biso  1.000000 H
   H          1.0     0.533036      0.965972      0.287955     Biso  1.000000 H
   H          1.0     0.466960      0.465972      0.212044     Biso  1.000000 H
   C          1.0     0.742517      0.766140      0.867564     Biso  1.000000 C
   C          1.0     0.257481      0.266140      0.632434     Biso  1.000000 C
   C          1.0     0.257481      0.233855      0.132434     Biso  1.000000 C
   C          1.0     0.742517      0.733855      0.367564     Biso  1.000000 C
   C          1.0     0.578383      0.780779      0.748006     Biso  1.000000 C
   C          1.0     0.421614      0.280778      0.751993     Biso  1.000000 C
   C          1.0     0.421614      0.219217      0.251993     Biso  1.000000 C
   C          1.0     0.578383      0.719217      0.248005     Biso  1.000000 C
   C          1.0     0.493395      0.877728      0.694608     Biso  1.000000 C
   C          1.0     0.506603      0.377729      0.805391     Biso  1.000000 C
   C          1.0     0.506603      0.122267      0.305392     Biso  1.000000 C
   C          1.0     0.493395      0.622268      0.194606     Biso  1.000000 C
