#======================================================================

# CRYSTAL DATA

#----------------------------------------------------------------------

data_VESTA_phase_1


_chemical_name_common                  '# Quantum Espresso PWSCF output snapsh'
_cell_length_a                         8.30070
_cell_length_b                         12.78222
_cell_length_c                         6.12005
_cell_angle_alpha                      90
_cell_angle_beta                       102.60988
_cell_angle_gamma                      90
_space_group_name_H-M_alt              'P 1'
_space_group_IT_number                 1

loop_
_space_group_symop_operation_xyz
   'x, y, z'

loop_
   _atom_site_label
   _atom_site_occupancy
   _atom_site_fract_x
   _atom_site_fract_y
   _atom_site_fract_z
   _atom_site_adp_type
   _atom_site_B_iso_or_equiv
   _atom_site_type_symbol
   K          1.0     0.895678      0.464861      0.222955     Biso  1.000000 K
   K          1.0     0.104323      0.964859      0.277043     Biso  1.000000 K
   K          1.0     0.104326      0.535137      0.777044     Biso  1.000000 K
   K          1.0     0.895681      0.035137      0.722956     Biso  1.000000 K
   H          1.0     0.799675      0.380174      0.659365     Biso  1.000000 H
   H          1.0     0.200332      0.880173      0.840636     Biso  1.000000 H
   H          1.0     0.200329      0.619824      0.340635     Biso  1.000000 H
   H          1.0     0.799672      0.119824      0.159366     Biso  1.000000 H
   H          1.0     0.781048      0.499753      0.710191     Biso  1.000000 H
   H          1.0     0.218959      0.999752      0.789810     Biso  1.000000 H
   H          1.0     0.218957      0.500245      0.289808     Biso  1.000000 H
   H          1.0     0.781044      0.000245      0.210192     Biso  1.000000 H
   H          1.0     0.638628      0.987888      0.890549     Biso  1.000000 H
   H          1.0     0.361379      0.487888      0.609451     Biso  1.000000 H
   H          1.0     0.361376      0.012108      0.109451     Biso  1.000000 H
   H          1.0     0.638625      0.512108      0.390548     Biso  1.000000 H
   O          1.0     0.749150      0.580532      0.892965     Biso  1.000000 O
   O          1.0     0.250857      0.080532      0.607036     Biso  1.000000 O
   O          1.0     0.250854      0.419465      0.107034     Biso  1.000000 O
   O          1.0     0.749148      0.919465      0.392964     Biso  1.000000 O
   O          1.0     0.804343      0.449618      0.596483     Biso  1.000000 O
   O          1.0     0.195665      0.949618      0.903518     Biso  1.000000 O
   O          1.0     0.195662      0.550378      0.403518     Biso  1.000000 O
   O          1.0     0.804340      0.050379      0.096482     Biso  1.000000 O
   O          1.0     0.338580      0.747264      0.549966     Biso  1.000000 O
   O          1.0     0.661428      0.247265      0.950035     Biso  1.000000 O
   O          1.0     0.661425      0.252732      0.450034     Biso  1.000000 O
   O          1.0     0.338577      0.752731      0.049965     Biso  1.000000 O
   N          1.0     0.815384      0.672874      0.923963     Biso  1.000000 N
   N          1.0     0.184624      0.172874      0.576039     Biso  1.000000 N
   N          1.0     0.184621      0.327124      0.076038     Biso  1.000000 N
   N          1.0     0.815381      0.827123      0.423962     Biso  1.000000 N
   N          1.0     0.972920      0.688217      0.035281     Biso  1.000000 N
   N          1.0     0.027083      0.188218      0.464719     Biso  1.000000 N
   N          1.0     0.027086      0.311780      0.964721     Biso  1.000000 N
   N          1.0     0.972923      0.811779      0.535281     Biso  1.000000 N
   N          1.0     0.994174      0.789975      0.046943     Biso  1.000000 N
   N          1.0     0.005828      0.289976      0.453057     Biso  1.000000 N
   N          1.0     0.005831      0.210022      0.953058     Biso  1.000000 N
   N          1.0     0.994177      0.710022      0.546944     Biso  1.000000 N
   N          1.0     0.855541      0.841052      0.947320     Biso  1.000000 N
   N          1.0     0.144466      0.341052      0.552683     Biso  1.000000 N
   N          1.0     0.144463      0.158944      0.052682     Biso  1.000000 N
   N          1.0     0.855538      0.658944      0.447319     Biso  1.000000 N
   N          1.0     0.482689      0.702803      0.661713     Biso  1.000000 N
   N          1.0     0.517319      0.202803      0.838288     Biso  1.000000 N
   N          1.0     0.517316      0.297195      0.338287     Biso  1.000000 N
   N          1.0     0.482686      0.797194      0.161712     Biso  1.000000 N
   N          1.0     0.344905      0.856322      0.566825     Biso  1.000000 N
   N          1.0     0.655102      0.356322      0.933177     Biso  1.000000 N
   N          1.0     0.655099      0.143676      0.433176     Biso  1.000000 N
   N          1.0     0.344902      0.643674      0.066825     Biso  1.000000 N
   N          1.0     0.547265      0.975237      0.750608     Biso  1.000000 N
   N          1.0     0.452742      0.475238      0.749394     Biso  1.000000 N
   N          1.0     0.452738      0.024760      0.249392     Biso  1.000000 N
   N          1.0     0.547261      0.524759      0.250607     Biso  1.000000 N
   H          1.0     0.465692      0.035692      0.708870     Biso  1.000000 H
   H          1.0     0.534315      0.535692      0.791133     Biso  1.000000 H
   H          1.0     0.534312      0.964306      0.291132     Biso  1.000000 H
   H          1.0     0.465689      0.464306      0.208868     Biso  1.000000 H
   C          1.0     0.743786      0.767187      0.869482     Biso  1.000000 C
   C          1.0     0.256223      0.267187      0.630519     Biso  1.000000 C
   C          1.0     0.256220      0.232810      0.130518     Biso  1.000000 C
   C          1.0     0.743783      0.732809      0.369481     Biso  1.000000 C
   C          1.0     0.578318      0.781389      0.747864     Biso  1.000000 C
   C          1.0     0.421689      0.281389      0.752139     Biso  1.000000 C
   C          1.0     0.421686      0.218608      0.252138     Biso  1.000000 C
   C          1.0     0.578315      0.718608      0.247862     Biso  1.000000 C
   C          1.0     0.492595      0.878591      0.692330     Biso  1.000000 C
   C          1.0     0.507413      0.378592      0.807671     Biso  1.000000 C
   C          1.0     0.507410      0.121405      0.307671     Biso  1.000000 C
   C          1.0     0.492592      0.621406      0.192328     Biso  1.000000 C
