#======================================================================

# CRYSTAL DATA

#----------------------------------------------------------------------

data_VESTA_phase_1


_chemical_name_common                  '# Quantum Espresso PWSCF output snapsh'
_cell_length_a                         8.25233
_cell_length_b                         12.74692
_cell_length_c                         6.07237
_cell_angle_alpha                      90
_cell_angle_beta                       102.44716
_cell_angle_gamma                      90
_space_group_name_H-M_alt              'P 1'
_space_group_IT_number                 1

loop_
_space_group_symop_operation_xyz
   'x, y, z'

loop_
   _atom_site_label
   _atom_site_occupancy
   _atom_site_fract_x
   _atom_site_fract_y
   _atom_site_fract_z
   _atom_site_adp_type
   _atom_site_B_iso_or_equiv
   _atom_site_type_symbol
   K          1.0     0.897014      0.465406      0.222431     Biso  1.000000 K
   K          1.0     0.102988      0.965405      0.277567     Biso  1.000000 K
   K          1.0     0.102991      0.534593      0.777569     Biso  1.000000 K
   K          1.0     0.897018      0.034592      0.722432     Biso  1.000000 K
   H          1.0     0.798432      0.379461      0.659079     Biso  1.000000 H
   H          1.0     0.201577      0.879461      0.840923     Biso  1.000000 H
   H          1.0     0.201573      0.620539      0.340921     Biso  1.000000 H
   H          1.0     0.798428      0.120538      0.159080     Biso  1.000000 H
   H          1.0     0.780423      0.499485      0.710344     Biso  1.000000 H
   H          1.0     0.219587      0.999485      0.789657     Biso  1.000000 H
   H          1.0     0.219584      0.500515      0.289655     Biso  1.000000 H
   H          1.0     0.780418      0.000514      0.210345     Biso  1.000000 H
   H          1.0     0.638820      0.988639      0.891010     Biso  1.000000 H
   H          1.0     0.361190      0.488638      0.608991     Biso  1.000000 H
   H          1.0     0.361186      0.011359      0.108990     Biso  1.000000 H
   H          1.0     0.638816      0.511360      0.391009     Biso  1.000000 H
   O          1.0     0.749213      0.580701      0.893240     Biso  1.000000 O
   O          1.0     0.250797      0.080700      0.606761     Biso  1.000000 O
   O          1.0     0.250793      0.419298      0.106759     Biso  1.000000 O
   O          1.0     0.749210      0.919299      0.393239     Biso  1.000000 O
   O          1.0     0.803519      0.449061      0.595795     Biso  1.000000 O
   O          1.0     0.196492      0.949062      0.904207     Biso  1.000000 O
   O          1.0     0.196488      0.550936      0.404207     Biso  1.000000 O
   O          1.0     0.803515      0.050936      0.095793     Biso  1.000000 O
   O          1.0     0.337839      0.747231      0.548412     Biso  1.000000 O
   O          1.0     0.662172      0.247231      0.951590     Biso  1.000000 O
   O          1.0     0.662168      0.252767      0.451589     Biso  1.000000 O
   O          1.0     0.337835      0.752766      0.048411     Biso  1.000000 O
   N          1.0     0.816074      0.673126      0.924697     Biso  1.000000 N
   N          1.0     0.183937      0.173125      0.575306     Biso  1.000000 N
   N          1.0     0.183933      0.326874      0.075305     Biso  1.000000 N
   N          1.0     0.816070      0.826874      0.424696     Biso  1.000000 N
   N          1.0     0.974198      0.688344      0.036908     Biso  1.000000 N
   N          1.0     0.025806      0.188344      0.463092     Biso  1.000000 N
   N          1.0     0.025810      0.311655      0.963094     Biso  1.000000 N
   N          1.0     0.974202      0.811655      0.536909     Biso  1.000000 N
   N          1.0     0.995602      0.790290      0.049037     Biso  1.000000 N
   N          1.0     0.004401      0.290290      0.450963     Biso  1.000000 N
   N          1.0     0.004405      0.209708      0.950964     Biso  1.000000 N
   N          1.0     0.995606      0.709709      0.549039     Biso  1.000000 N
   N          1.0     0.856450      0.841613      0.948868     Biso  1.000000 N
   N          1.0     0.143560      0.341612      0.551136     Biso  1.000000 N
   N          1.0     0.143556      0.158384      0.051135     Biso  1.000000 N
   N          1.0     0.856446      0.658385      0.448866     Biso  1.000000 N
   N          1.0     0.482475      0.702749      0.661231     Biso  1.000000 N
   N          1.0     0.517535      0.202748      0.838771     Biso  1.000000 N
   N          1.0     0.517531      0.297250      0.338769     Biso  1.000000 N
   N          1.0     0.482471      0.797250      0.161230     Biso  1.000000 N
   N          1.0     0.344151      0.856541      0.564655     Biso  1.000000 N
   N          1.0     0.655859      0.356540      0.935348     Biso  1.000000 N
   N          1.0     0.655855      0.143459      0.435346     Biso  1.000000 N
   N          1.0     0.344147      0.643457      0.064655     Biso  1.000000 N
   N          1.0     0.546965      0.975759      0.750426     Biso  1.000000 N
   N          1.0     0.453045      0.475759      0.749577     Biso  1.000000 N
   N          1.0     0.453040      0.024240      0.249574     Biso  1.000000 N
   N          1.0     0.546960      0.524239      0.250425     Biso  1.000000 N
   H          1.0     0.465303      0.036475      0.708070     Biso  1.000000 H
   H          1.0     0.534707      0.536476      0.791934     Biso  1.000000 H
   H          1.0     0.534703      0.963524      0.291933     Biso  1.000000 H
   H          1.0     0.465299      0.463523      0.208067     Biso  1.000000 H
   C          1.0     0.744281      0.767646      0.870191     Biso  1.000000 C
   C          1.0     0.255731      0.267646      0.629811     Biso  1.000000 C
   C          1.0     0.255727      0.232352      0.129810     Biso  1.000000 C
   C          1.0     0.744277      0.732352      0.370190     Biso  1.000000 C
   C          1.0     0.578252      0.781656      0.747721     Biso  1.000000 C
   C          1.0     0.421757      0.281655      0.752283     Biso  1.000000 C
   C          1.0     0.421753      0.218342      0.252281     Biso  1.000000 C
   C          1.0     0.578248      0.718343      0.247719     Biso  1.000000 C
   C          1.0     0.492247      0.878990      0.691402     Biso  1.000000 C
   C          1.0     0.507764      0.378990      0.808600     Biso  1.000000 C
   C          1.0     0.507760      0.121007      0.308600     Biso  1.000000 C
   C          1.0     0.492243      0.621009      0.191400     Biso  1.000000 C
