#======================================================================

# CRYSTAL DATA

#----------------------------------------------------------------------

data_VESTA_phase_1


_chemical_name_common                  '# Quantum Espresso PWSCF output snapsh'
_cell_length_a                         4.38230
_cell_length_b                         12.48291
_cell_length_c                         12.38990
_cell_angle_alpha                      90
_cell_angle_beta                       91.12611
_cell_angle_gamma                      90
_space_group_name_H-M_alt              'P 1'
_space_group_IT_number                 1

loop_
_space_group_symop_operation_xyz
   'x, y, z'

loop_
   _atom_site_label
   _atom_site_occupancy
   _atom_site_fract_x
   _atom_site_fract_y
   _atom_site_fract_z
   _atom_site_adp_type
   _atom_site_B_iso_or_equiv
   _atom_site_type_symbol
   K          1.0     0.261198      0.070355      0.370029     Biso  1.000000 K
   K          1.0     0.238803      0.570353      0.129970     Biso  1.000000 K
   K          1.0     0.738803      0.929643      0.629967     Biso  1.000000 K
   K          1.0     0.761198      0.429644      0.870027     Biso  1.000000 K
   O          1.0     0.774749      0.944471      0.400011     Biso  1.000000 O
   O          1.0     0.725251      0.444473      0.099986     Biso  1.000000 O
   O          1.0     0.225251      0.055527      0.599985     Biso  1.000000 O
   O          1.0     0.274749      0.555525      0.900010     Biso  1.000000 O
   O          1.0     0.442315      0.736764      0.554832     Biso  1.000000 O
   O          1.0     0.057686      0.236766      0.945162     Biso  1.000000 O
   O          1.0     0.557686      0.263233      0.445163     Biso  1.000000 O
   O          1.0     0.942315      0.763232      0.054835     Biso  1.000000 O
   N          1.0     0.723112      0.857812      0.344713     Biso  1.000000 N
   N          1.0     0.776889      0.357814      0.155284     Biso  1.000000 N
   N          1.0     0.276889      0.142186      0.655283     Biso  1.000000 N
   N          1.0     0.223112      0.642184      0.844712     Biso  1.000000 N
   N          1.0     0.506441      0.851524      0.264972     Biso  1.000000 N
   N          1.0     0.993558      0.351525      0.235027     Biso  1.000000 N
   N          1.0     0.493559      0.148474      0.735024     Biso  1.000000 N
   N          1.0     0.006442      0.648472      0.764970     Biso  1.000000 N
   N          1.0     0.511412      0.751663      0.229233     Biso  1.000000 N
   N          1.0     0.988589      0.251665      0.270766     Biso  1.000000 N
   N          1.0     0.488589      0.248334      0.770763     Biso  1.000000 N
   N          1.0     0.011411      0.748333      0.729230     Biso  1.000000 N
   N          1.0     0.723946      0.693123      0.282175     Biso  1.000000 N
   N          1.0     0.776055      0.193123      0.217823     Biso  1.000000 N
   N          1.0     0.276055      0.306875      0.717821     Biso  1.000000 N
   N          1.0     0.223945      0.806874      0.782172     Biso  1.000000 N
   N          1.0     0.225365      0.796872      0.500035     Biso  1.000000 N
   N          1.0     0.274636      0.296873     -0.000037     Biso  1.000000 N
   N          1.0     0.774636      0.203126      0.499961     Biso  1.000000 N
   N          1.0     0.725365      0.703125      1.000033     Biso  1.000000 N
   N          1.0     0.440534      0.629999      0.519678     Biso  1.000000 N
   N          1.0     0.059466      0.129999      0.980315     Biso  1.000000 N
   N          1.0     0.559467      0.369999      0.480318     Biso  1.000000 N
   N          1.0     0.940534      0.869997      0.019681     Biso  1.000000 N
   N          1.0     0.161573      0.538085      0.382239     Biso  1.000000 N
   N          1.0     0.338427      0.038086      0.117760     Biso  1.000000 N
   N          1.0     0.838428      0.461913      0.617757     Biso  1.000000 N
   N          1.0     0.661573      0.961911      0.882236     Biso  1.000000 N
   H          1.0     0.954100      0.535745      0.344225     Biso  1.000000 H
   H          1.0     0.545900      0.035747      0.155774     Biso  1.000000 H
   H          1.0     0.045901      0.464252      0.655771     Biso  1.000000 H
   H          1.0     0.454100      0.964251      0.844222     Biso  1.000000 H
   H          1.0     0.262116      0.467219      0.405202     Biso  1.000000 H
   H          1.0     0.237884      0.967218      0.094795     Biso  1.000000 H
   H          1.0     0.737884      0.532779      0.594794     Biso  1.000000 H
   H          1.0     0.762116      0.032780      0.905201     Biso  1.000000 H
   C          1.0     0.091959      0.730645      0.431008     Biso  1.000000 C
   C          1.0     0.408042      0.230646      0.068989     Biso  1.000000 C
   C          1.0     0.908041      0.269353      0.568988     Biso  1.000000 C
   C          1.0     0.591959      0.769352      0.931007     Biso  1.000000 C
   C          1.0     0.856203      0.759471      0.354807     Biso  1.000000 C
   C          1.0     0.643797      0.259472      0.145191     Biso  1.000000 C
   C          1.0     0.143797      0.240527      0.645189     Biso  1.000000 C
   C          1.0     0.356204      0.740526      0.854805     Biso  1.000000 C
   C          1.0     0.226654      0.625431      0.442716     Biso  1.000000 C
   C          1.0     0.273347      0.125432      0.057282     Biso  1.000000 C
   C          1.0     0.773347      0.374567      0.557281     Biso  1.000000 C
   C          1.0     0.726654      0.874565      0.942714     Biso  1.000000 C
