#======================================================================

# CRYSTAL DATA

#----------------------------------------------------------------------

data_VESTA_phase_1


_chemical_name_common                  '# Quantum Espresso PWSCF output snapsh'
_cell_length_a                         4.25747
_cell_length_b                         12.54514
_cell_length_c                         12.16002
_cell_angle_alpha                      90
_cell_angle_beta                       90.44060
_cell_angle_gamma                      90
_space_group_name_H-M_alt              'P 1'
_space_group_IT_number                 1

loop_
_space_group_symop_operation_xyz
   'x, y, z'

loop_
   _atom_site_label
   _atom_site_occupancy
   _atom_site_fract_x
   _atom_site_fract_y
   _atom_site_fract_z
   _atom_site_adp_type
   _atom_site_B_iso_or_equiv
   _atom_site_type_symbol
   K          1.0     0.270033      0.072883      0.367966     Biso  1.000000 K
   K          1.0     0.229968      0.572882      0.132034     Biso  1.000000 K
   K          1.0     0.729967      0.927120      0.632032     Biso  1.000000 K
   K          1.0     0.770031      0.427118      0.867964     Biso  1.000000 K
   O          1.0     0.785095      0.945338      0.399705     Biso  1.000000 O
   O          1.0     0.714905      0.445337      0.100292     Biso  1.000000 O
   O          1.0     0.214903      0.054664      0.600292     Biso  1.000000 O
   O          1.0     0.285094      0.554665      0.899705     Biso  1.000000 O
   O          1.0     0.449299      0.733193      0.557762     Biso  1.000000 O
   O          1.0     0.050701      0.233193      0.942235     Biso  1.000000 O
   O          1.0     0.550701      0.266809      0.442235     Biso  1.000000 O
   O          1.0     0.949299      0.766809      0.057764     Biso  1.000000 O
   N          1.0     0.725329      0.859468      0.344058     Biso  1.000000 N
   N          1.0     0.774672      0.359468      0.155940     Biso  1.000000 N
   N          1.0     0.274670      0.140533      0.655940     Biso  1.000000 N
   N          1.0     0.225328      0.640534      0.844058     Biso  1.000000 N
   N          1.0     0.502986      0.854780      0.263526     Biso  1.000000 N
   N          1.0     0.997013      0.354780      0.236474     Biso  1.000000 N
   N          1.0     0.497013      0.145221      0.736472     Biso  1.000000 N
   N          1.0     0.002986      0.645221      0.763524     Biso  1.000000 N
   N          1.0     0.499416      0.755157      0.228181     Biso  1.000000 N
   N          1.0     1.000585      0.255157      0.271818     Biso  1.000000 N
   N          1.0     0.500584      0.244844      0.771816     Biso  1.000000 N
   N          1.0    -0.000587      0.744845      0.728179     Biso  1.000000 N
   N          1.0     0.711951      0.695160      0.282107     Biso  1.000000 N
   N          1.0     0.788049      0.195159      0.217892     Biso  1.000000 N
   N          1.0     0.288049      0.304841      0.717891     Biso  1.000000 N
   N          1.0     0.211949      0.804843      0.782104     Biso  1.000000 N
   N          1.0     0.232005      0.794877      0.502219     Biso  1.000000 N
   N          1.0     0.267994      0.294876      0.997781     Biso  1.000000 N
   N          1.0     0.767994      0.205124      0.497778     Biso  1.000000 N
   N          1.0     0.732005      0.705126      0.002216     Biso  1.000000 N
   N          1.0     0.438903      0.626965      0.522563     Biso  1.000000 N
   N          1.0     0.061095      0.126964      0.977432     Biso  1.000000 N
   N          1.0     0.561097      0.373037      0.477434     Biso  1.000000 N
   N          1.0     0.938904      0.873037      0.022566     Biso  1.000000 N
   N          1.0     0.147925      0.538227      0.382905     Biso  1.000000 N
   N          1.0     0.352074      0.038227      0.117095     Biso  1.000000 N
   N          1.0     0.852075      0.461775      0.617093     Biso  1.000000 N
   N          1.0     0.647924      0.961775      0.882903     Biso  1.000000 N
   H          1.0     0.932958      0.536954      0.346100     Biso  1.000000 H
   H          1.0     0.567040      0.036953      0.153900     Biso  1.000000 H
   H          1.0     0.067041      0.463047      0.653898     Biso  1.000000 H
   H          1.0     0.432958      0.963049      0.846098     Biso  1.000000 H
   H          1.0     0.250055      0.467234      0.404870     Biso  1.000000 H
   H          1.0     0.249944      0.967235      0.095127     Biso  1.000000 H
   H          1.0     0.749943      0.532768      0.595127     Biso  1.000000 H
   H          1.0     0.750055      0.032767      0.904870     Biso  1.000000 H
   C          1.0     0.090484      0.730024      0.432587     Biso  1.000000 C
   C          1.0     0.409517      0.230022      0.067411     Biso  1.000000 C
   C          1.0     0.909515      0.269978      0.567411     Biso  1.000000 C
   C          1.0     0.590483      0.769979      0.932587     Biso  1.000000 C
   C          1.0     0.852915      0.760433      0.355024     Biso  1.000000 C
   C          1.0     0.647085      0.260433      0.144974     Biso  1.000000 C
   C          1.0     0.147085      0.239568      0.644973     Biso  1.000000 C
   C          1.0     0.352915      0.739569      0.855023     Biso  1.000000 C
   C          1.0     0.220121      0.624275      0.444581     Biso  1.000000 C
   C          1.0     0.279879      0.124273      0.055418     Biso  1.000000 C
   C          1.0     0.779879      0.375728      0.555418     Biso  1.000000 C
   C          1.0     0.720119      0.875728      0.944580     Biso  1.000000 C
