#======================================================================

# CRYSTAL DATA

#----------------------------------------------------------------------

data_VESTA_phase_1


_chemical_name_common                  '# Quantum Espresso PWSCF output snapsh'
_cell_length_a                         4.12756
_cell_length_b                         12.11547
_cell_length_c                         10.84197
_cell_angle_alpha                      90.00007
_cell_angle_beta                       88.48314
_cell_angle_gamma                      89.99995
_space_group_name_H-M_alt              'P 1'
_space_group_IT_number                 1

loop_
_space_group_symop_operation_xyz
   'x, y, z'

loop_
   _atom_site_label
   _atom_site_occupancy
   _atom_site_fract_x
   _atom_site_fract_y
   _atom_site_fract_z
   _atom_site_adp_type
   _atom_site_B_iso_or_equiv
   _atom_site_type_symbol
   K          1.0     0.281476      0.054711      0.393931     Biso  1.000000 K
   K          1.0     0.218526      0.554711      0.106076     Biso  1.000000 K
   K          1.0     0.718525      0.945294      0.606076     Biso  1.000000 K
   K          1.0     0.781477      0.445294      0.893931     Biso  1.000000 K
   O          1.0     0.796456      0.947389      0.343968     Biso  1.000000 O
   O          1.0     0.703547      0.447388      0.156039     Biso  1.000000 O
   O          1.0     0.203547      0.052617      0.656039     Biso  1.000000 O
   O          1.0     0.296455      0.552617      0.843967     Biso  1.000000 O
   O          1.0     0.475718      0.744077      0.548035     Biso  1.000000 O
   O          1.0     0.024284      0.244077      0.951971     Biso  1.000000 O
   O          1.0     0.524283      0.255929      0.451971     Biso  1.000000 O
   O          1.0     0.975718      0.755929      0.048035     Biso  1.000000 O
   N          1.0     0.725181      0.851020      0.301695     Biso  1.000000 N
   N          1.0     0.774821      0.351019      0.198310     Biso  1.000000 N
   N          1.0     0.274819      0.148986      0.698310     Biso  1.000000 N
   N          1.0     0.225182      0.648985      0.801695     Biso  1.000000 N
   N          1.0     0.485226      0.832836      0.222182     Biso  1.000000 N
   N          1.0     0.014777      0.332836      0.277824     Biso  1.000000 N
   N          1.0     0.514777      0.167169      0.777824     Biso  1.000000 N
   N          1.0     0.985225      0.667170      0.722182     Biso  1.000000 N
   N          1.0     0.479455      0.725702      0.204139     Biso  1.000000 N
   N          1.0     0.020546      0.225702      0.295867     Biso  1.000000 N
   N          1.0     0.520546      0.274303      0.795867     Biso  1.000000 N
   N          1.0     0.979455      0.774303      0.704139     Biso  1.000000 N
   N          1.0     0.705686      0.673969      0.267981     Biso  1.000000 N
   N          1.0     0.794316      0.173969      0.232025     Biso  1.000000 N
   N          1.0     0.294316      0.326037      0.732025     Biso  1.000000 N
   N          1.0     0.205686      0.826037      0.767981     Biso  1.000000 N
   N          1.0     0.255800      0.804826      0.481707     Biso  1.000000 N
   N          1.0     0.244203      0.304826      0.018299     Biso  1.000000 N
   N          1.0     0.744202      0.195180      0.518298     Biso  1.000000 N
   N          1.0     0.755801      0.695180      0.981708     Biso  1.000000 N
   N          1.0     0.451088      0.631382      0.522960     Biso  1.000000 N
   N          1.0     0.048914      0.131382      0.977045     Biso  1.000000 N
   N          1.0     0.548914      0.368623      0.477045     Biso  1.000000 N
   N          1.0     0.951087      0.868623      0.022960     Biso  1.000000 N
   N          1.0     0.137006      0.532663      0.379932     Biso  1.000000 N
   N          1.0     0.362996      0.032663      0.120074     Biso  1.000000 N
   N          1.0     0.862995      0.467343      0.620074     Biso  1.000000 N
   N          1.0     0.637006      0.967343      0.879932     Biso  1.000000 N
   H          1.0     0.921601      0.534052      0.336085     Biso  1.000000 H
   H          1.0     0.578401      0.034052      0.163921     Biso  1.000000 H
   H          1.0     0.078402      0.465953      0.663920     Biso  1.000000 H
   H          1.0     0.421601      0.965953      0.836086     Biso  1.000000 H
   H          1.0     0.245098      0.459441      0.402022     Biso  1.000000 H
   H          1.0     0.254903      0.959441      0.097984     Biso  1.000000 H
   H          1.0     0.754903      0.540565      0.597985     Biso  1.000000 H
   H          1.0     0.745098      0.040565      0.902022     Biso  1.000000 H
   C          1.0     0.099690      0.731928      0.417099     Biso  1.000000 C
   C          1.0     0.400313      0.231928      0.082907     Biso  1.000000 C
   C          1.0     0.900313      0.268077      0.582907     Biso  1.000000 C
   C          1.0     0.599689      0.768077      0.917099     Biso  1.000000 C
   C          1.0     0.858021      0.752689      0.330018     Biso  1.000000 C
   C          1.0     0.641982      0.252689      0.169989     Biso  1.000000 C
   C          1.0     0.141981      0.247317      0.669989     Biso  1.000000 C
   C          1.0     0.358021      0.747317      0.830018     Biso  1.000000 C
   C          1.0     0.222654      0.623312      0.440214     Biso  1.000000 C
   C          1.0     0.277348      0.123312      0.059792     Biso  1.000000 C
   C          1.0     0.777347      0.376694      0.559792     Biso  1.000000 C
   C          1.0     0.722655      0.876694      0.940215     Biso  1.000000 C
