#======================================================================

# CRYSTAL DATA

#----------------------------------------------------------------------

data_VESTA_phase_1


_chemical_name_common                  '# Quantum Espresso PWSCF output snapsh'
_cell_length_a                         4.05992
_cell_length_b                         12.01698
_cell_length_c                         10.70146
_cell_angle_alpha                      90.00001
_cell_angle_beta                       87.77619
_cell_angle_gamma                      89.99997
_space_group_name_H-M_alt              'P 1'
_space_group_IT_number                 1

loop_
_space_group_symop_operation_xyz
   'x, y, z'

loop_
   _atom_site_label
   _atom_site_occupancy
   _atom_site_fract_x
   _atom_site_fract_y
   _atom_site_fract_z
   _atom_site_adp_type
   _atom_site_B_iso_or_equiv
   _atom_site_type_symbol
   K          1.0     0.281839      0.053495      0.397241     Biso  1.000000 K
   K          1.0     0.218158      0.553495      0.102761     Biso  1.000000 K
   K          1.0     0.718157      0.946511      0.602761     Biso  1.000000 K
   K          1.0     0.781841      0.446511      0.897241     Biso  1.000000 K
   O          1.0     0.800015      0.948474      0.336823     Biso  1.000000 O
   O          1.0     0.699983      0.448473      0.163179     Biso  1.000000 O
   O          1.0     0.199984      0.051533      0.663179     Biso  1.000000 O
   O          1.0     0.300014      0.551533      0.836822     Biso  1.000000 O
   O          1.0     0.479784      0.744378      0.547119     Biso  1.000000 O
   O          1.0     0.020213      0.244378      0.952882     Biso  1.000000 O
   O          1.0     0.520212      0.255629      0.452882     Biso  1.000000 O
   O          1.0     0.979785      0.755628      0.047119     Biso  1.000000 O
   N          1.0     0.724638      0.850881      0.296937     Biso  1.000000 N
   N          1.0     0.775358      0.350880      0.203065     Biso  1.000000 N
   N          1.0     0.275357      0.149125      0.703065     Biso  1.000000 N
   N          1.0     0.224640      0.649125      0.796937     Biso  1.000000 N
   N          1.0     0.481459      0.831466      0.217754     Biso  1.000000 N
   N          1.0     0.018539      0.331467      0.282247     Biso  1.000000 N
   N          1.0     0.518540      0.168539      0.782247     Biso  1.000000 N
   N          1.0     0.981457      0.668540      0.717754     Biso  1.000000 N
   N          1.0     0.475632      0.723336      0.201695     Biso  1.000000 N
   N          1.0     0.024365      0.223336      0.298307     Biso  1.000000 N
   N          1.0     0.524365      0.276669      0.798307     Biso  1.000000 N
   N          1.0     0.975632      0.776670      0.701695     Biso  1.000000 N
   N          1.0     0.704194      0.672221      0.266551     Biso  1.000000 N
   N          1.0     0.795803      0.172220      0.233450     Biso  1.000000 N
   N          1.0     0.295803      0.327786      0.733450     Biso  1.000000 N
   N          1.0     0.204195      0.827786      0.766551     Biso  1.000000 N
   N          1.0     0.258448      0.805761      0.480032     Biso  1.000000 N
   N          1.0     0.241549      0.305761      0.019969     Biso  1.000000 N
   N          1.0     0.741548      0.194246      0.519968     Biso  1.000000 N
   N          1.0     0.758449      0.694246      0.980033     Biso  1.000000 N
   N          1.0     0.453234      0.630794      0.522525     Biso  1.000000 N
   N          1.0     0.046763      0.130794      0.977476     Biso  1.000000 N
   N          1.0     0.546765      0.369212      0.477476     Biso  1.000000 N
   N          1.0     0.953232      0.869212      0.022525     Biso  1.000000 N
   N          1.0     0.134107      0.531889      0.378741     Biso  1.000000 N
   N          1.0     0.365890      0.031890      0.121261     Biso  1.000000 N
   N          1.0     0.865889      0.468117      0.621260     Biso  1.000000 N
   N          1.0     0.634107      0.968117      0.878741     Biso  1.000000 N
   H          1.0     0.916258      0.533962      0.334431     Biso  1.000000 H
   H          1.0     0.583739      0.033962      0.165571     Biso  1.000000 H
   H          1.0     0.083740      0.466044      0.665570     Biso  1.000000 H
   H          1.0     0.416257      0.966044      0.834432     Biso  1.000000 H
   H          1.0     0.243924      0.458045      0.400352     Biso  1.000000 H
   H          1.0     0.256072      0.958045      0.099650     Biso  1.000000 H
   H          1.0     0.756072      0.541962      0.599651     Biso  1.000000 H
   H          1.0     0.743924      0.041961      0.900351     Biso  1.000000 H
   C          1.0     0.099762      0.732229      0.415736     Biso  1.000000 C
   C          1.0     0.400236      0.232229      0.084266     Biso  1.000000 C
   C          1.0     0.900236      0.267777      0.584265     Biso  1.000000 C
   C          1.0     0.599761      0.767777      0.915736     Biso  1.000000 C
   C          1.0     0.858128      0.752357      0.327323     Biso  1.000000 C
   C          1.0     0.641869      0.252358      0.172680     Biso  1.000000 C
   C          1.0     0.141869      0.247649      0.672680     Biso  1.000000 C
   C          1.0     0.358129      0.747649      0.827323     Biso  1.000000 C
   C          1.0     0.222098      0.622756      0.439420     Biso  1.000000 C
   C          1.0     0.277899      0.122756      0.060581     Biso  1.000000 C
   C          1.0     0.777899      0.377251      0.560580     Biso  1.000000 C
   C          1.0     0.722100      0.877251      0.939421     Biso  1.000000 C
