#======================================================================

# CRYSTAL DATA

#----------------------------------------------------------------------

data_VESTA_phase_1


_chemical_name_common                  '# Quantum Espresso PWSCF output snapsh'
_cell_length_a                         4.03954
_cell_length_b                         11.98773
_cell_length_c                         10.66232
_cell_angle_alpha                      89.99997
_cell_angle_beta                       87.56259
_cell_angle_gamma                      89.99998
_space_group_name_H-M_alt              'P 1'
_space_group_IT_number                 1

loop_
_space_group_symop_operation_xyz
   'x, y, z'

loop_
   _atom_site_label
   _atom_site_occupancy
   _atom_site_fract_x
   _atom_site_fract_y
   _atom_site_fract_z
   _atom_site_adp_type
   _atom_site_B_iso_or_equiv
   _atom_site_type_symbol
   K          1.0     0.282023      0.053276      0.398066     Biso  1.000000 K
   K          1.0     0.217974      0.553276      0.101932     Biso  1.000000 K
   K          1.0     0.717973      0.946728      0.601932     Biso  1.000000 K
   K          1.0     0.782025      0.446728      0.898066     Biso  1.000000 K
   O          1.0     0.801259      0.948830      0.334977     Biso  1.000000 O
   O          1.0     0.698739      0.448830      0.165020     Biso  1.000000 O
   O          1.0     0.198740      0.051175      0.665021     Biso  1.000000 O
   O          1.0     0.301259      0.551175      0.834977     Biso  1.000000 O
   O          1.0     0.481009      0.744370      0.546957     Biso  1.000000 O
   O          1.0     0.018989      0.244369      0.953041     Biso  1.000000 O
   O          1.0     0.518988      0.255636      0.453041     Biso  1.000000 O
   O          1.0     0.981010      0.755635      0.046956     Biso  1.000000 O
   N          1.0     0.724527      0.850915      0.295770     Biso  1.000000 N
   N          1.0     0.775470      0.350915      0.204228     Biso  1.000000 N
   N          1.0     0.275468      0.149089      0.704228     Biso  1.000000 N
   N          1.0     0.224529      0.649088      0.795770     Biso  1.000000 N
   N          1.0     0.480371      0.831199      0.216689     Biso  1.000000 N
   N          1.0     0.019627      0.331200      0.283308     Biso  1.000000 N
   N          1.0     0.519628      0.168804      0.783308     Biso  1.000000 N
   N          1.0     0.980370      0.668805      0.716689     Biso  1.000000 N
   N          1.0     0.474497      0.722791      0.201133     Biso  1.000000 N
   N          1.0     0.025501      0.222792      0.298866     Biso  1.000000 N
   N          1.0     0.525501      0.277212      0.798866     Biso  1.000000 N
   N          1.0     0.974497      0.777212      0.701133     Biso  1.000000 N
   N          1.0     0.703745      0.671811      0.266236     Biso  1.000000 N
   N          1.0     0.796253      0.171811      0.233761     Biso  1.000000 N
   N          1.0     0.296252      0.328194      0.733761     Biso  1.000000 N
   N          1.0     0.203746      0.828193      0.766236     Biso  1.000000 N
   N          1.0     0.259287      0.805991      0.479696     Biso  1.000000 N
   N          1.0     0.240710      0.305991      0.020301     Biso  1.000000 N
   N          1.0     0.740709      0.194014      0.520300     Biso  1.000000 N
   N          1.0     0.759288      0.694014      0.979697     Biso  1.000000 N
   N          1.0     0.453813      0.630537      0.522443     Biso  1.000000 N
   N          1.0     0.046184      0.130537      0.977554     Biso  1.000000 N
   N          1.0     0.546186      0.369467      0.477554     Biso  1.000000 N
   N          1.0     0.953811      0.869467      0.022443     Biso  1.000000 N
   N          1.0     0.133156      0.531680      0.378395     Biso  1.000000 N
   N          1.0     0.366842      0.031681      0.121603     Biso  1.000000 N
   N          1.0     0.866840      0.468325      0.621602     Biso  1.000000 N
   N          1.0     0.633156      0.968325      0.878396     Biso  1.000000 N
   H          1.0     0.914520      0.533957      0.333982     Biso  1.000000 H
   H          1.0     0.585477      0.033956      0.166016     Biso  1.000000 H
   H          1.0     0.085478      0.466048      0.666015     Biso  1.000000 H
   H          1.0     0.414520      0.966048      0.833983     Biso  1.000000 H
   H          1.0     0.243575      0.457656      0.399816     Biso  1.000000 H
   H          1.0     0.256421      0.957655      0.100182     Biso  1.000000 H
   H          1.0     0.756422      0.542350      0.600183     Biso  1.000000 H
   H          1.0     0.743575      0.042349      0.899815     Biso  1.000000 H
   C          1.0     0.099767      0.732317      0.415467     Biso  1.000000 C
   C          1.0     0.400231      0.232317      0.084531     Biso  1.000000 C
   C          1.0     0.900231      0.267687      0.584531     Biso  1.000000 C
   C          1.0     0.599767      0.767687      0.915467     Biso  1.000000 C
   C          1.0     0.858190      0.752317      0.326682     Biso  1.000000 C
   C          1.0     0.641808      0.252317      0.173317     Biso  1.000000 C
   C          1.0     0.141808      0.247688      0.673317     Biso  1.000000 C
   C          1.0     0.358190      0.747688      0.826682     Biso  1.000000 C
   C          1.0     0.221872      0.622573      0.439238     Biso  1.000000 C
   C          1.0     0.278126      0.122573      0.060759     Biso  1.000000 C
   C          1.0     0.778125      0.377432      0.560758     Biso  1.000000 C
   C          1.0     0.721873      0.877432      0.939239     Biso  1.000000 C
