#======================================================================

# CRYSTAL DATA

#----------------------------------------------------------------------

data_VESTA_phase_1


_chemical_name_common                  '# Quantum Espresso PWSCF output snapsh'
_cell_length_a                         4.02015
_cell_length_b                         11.95973
_cell_length_c                         10.62586
_cell_angle_alpha                      90.00002
_cell_angle_beta                       87.35792
_cell_angle_gamma                      90.00002
_space_group_name_H-M_alt              'P 1'
_space_group_IT_number                 1

loop_
_space_group_symop_operation_xyz
   'x, y, z'

loop_
   _atom_site_label
   _atom_site_occupancy
   _atom_site_fract_x
   _atom_site_fract_y
   _atom_site_fract_z
   _atom_site_adp_type
   _atom_site_B_iso_or_equiv
   _atom_site_type_symbol
   K          1.0     0.282247      0.053116      0.398807     Biso  1.000000 K
   K          1.0     0.217751      0.553116      0.101193     Biso  1.000000 K
   K          1.0     0.717750      0.946891      0.601193     Biso  1.000000 K
   K          1.0     0.782248      0.446890      0.898807     Biso  1.000000 K
   O          1.0     0.802503      0.949185      0.333316     Biso  1.000000 O
   O          1.0     0.697496      0.449185      0.166683     Biso  1.000000 O
   O          1.0     0.197496      0.050822      0.666684     Biso  1.000000 O
   O          1.0     0.302503      0.550823      0.833316     Biso  1.000000 O
   O          1.0     0.482129      0.744329      0.546849     Biso  1.000000 O
   O          1.0     0.017870      0.244328      0.953150     Biso  1.000000 O
   O          1.0     0.517869      0.255680      0.453151     Biso  1.000000 O
   O          1.0     0.982130      0.755678      0.046849     Biso  1.000000 O
   N          1.0     0.724405      0.850977      0.294753     Biso  1.000000 N
   N          1.0     0.775593      0.350976      0.205246     Biso  1.000000 N
   N          1.0     0.275590      0.149030      0.705246     Biso  1.000000 N
   N          1.0     0.224407      0.649029      0.794753     Biso  1.000000 N
   N          1.0     0.479309      0.830995      0.215773     Biso  1.000000 N
   N          1.0     0.020689      0.330995      0.284226     Biso  1.000000 N
   N          1.0     0.520690      0.169011      0.784226     Biso  1.000000 N
   N          1.0     0.979308      0.669012      0.715773     Biso  1.000000 N
   N          1.0     0.473373      0.722327      0.200669     Biso  1.000000 N
   N          1.0     0.026626      0.222327      0.299332     Biso  1.000000 N
   N          1.0     0.526626      0.277679      0.799332     Biso  1.000000 N
   N          1.0     0.973373      0.777679      0.700669     Biso  1.000000 N
   N          1.0     0.703271      0.671459      0.265987     Biso  1.000000 N
   N          1.0     0.796727      0.171458      0.234012     Biso  1.000000 N
   N          1.0     0.296726      0.328549      0.734012     Biso  1.000000 N
   N          1.0     0.203272      0.828548      0.765987     Biso  1.000000 N
   N          1.0     0.260056      0.806198      0.479441     Biso  1.000000 N
   N          1.0     0.239942      0.306198      0.020557     Biso  1.000000 N
   N          1.0     0.739941      0.193810      0.520557     Biso  1.000000 N
   N          1.0     0.760057      0.693809      0.979443     Biso  1.000000 N
   N          1.0     0.454290      0.630264      0.522390     Biso  1.000000 N
   N          1.0     0.045708      0.130264      0.977609     Biso  1.000000 N
   N          1.0     0.545710      0.369742      0.477609     Biso  1.000000 N
   N          1.0     0.954288      0.869742      0.022390     Biso  1.000000 N
   N          1.0     0.132187      0.531491      0.378072     Biso  1.000000 N
   N          1.0     0.367810      0.031491      0.121928     Biso  1.000000 N
   N          1.0     0.867810      0.468517      0.621927     Biso  1.000000 N
   N          1.0     0.632188      0.968517      0.878073     Biso  1.000000 N
   H          1.0     0.912783      0.533956      0.333574     Biso  1.000000 H
   H          1.0     0.587215      0.033956      0.166426     Biso  1.000000 H
   H          1.0     0.087216      0.466051      0.666425     Biso  1.000000 H
   H          1.0     0.412782      0.966051      0.833575     Biso  1.000000 H
   H          1.0     0.243234      0.457297      0.399281     Biso  1.000000 H
   H          1.0     0.256763      0.957296      0.100718     Biso  1.000000 H
   H          1.0     0.756763      0.542712      0.600719     Biso  1.000000 H
   H          1.0     0.743234      0.042711      0.899280     Biso  1.000000 H
   C          1.0     0.099716      0.732404      0.415269     Biso  1.000000 C
   C          1.0     0.400283      0.232403      0.084731     Biso  1.000000 C
   C          1.0     0.900282      0.267603      0.584730     Biso  1.000000 C
   C          1.0     0.599715      0.767603      0.915269     Biso  1.000000 C
   C          1.0     0.858219      0.752300      0.326134     Biso  1.000000 C
   C          1.0     0.641779      0.252300      0.173866     Biso  1.000000 C
   C          1.0     0.141779      0.247708      0.673867     Biso  1.000000 C
   C          1.0     0.358220      0.747708      0.826135     Biso  1.000000 C
   C          1.0     0.221581      0.622394      0.439092     Biso  1.000000 C
   C          1.0     0.278417      0.122394      0.060906     Biso  1.000000 C
   C          1.0     0.778416      0.377614      0.560906     Biso  1.000000 C
   C          1.0     0.721582      0.877613      0.939093     Biso  1.000000 C
