#======================================================================

# CRYSTAL DATA

#----------------------------------------------------------------------

data_VESTA_phase_1


_chemical_name_common                  '# Quantum Espresso PWSCF output snapsh'
_cell_length_a                         3.98442
_cell_length_b                         11.90669
_cell_length_c                         10.55885
_cell_angle_alpha                      90
_cell_angle_beta                       86.97461
_cell_angle_gamma                      89.99998
_space_group_name_H-M_alt              'P 1'
_space_group_IT_number                 1

loop_
_space_group_symop_operation_xyz
   'x, y, z'

loop_
   _atom_site_label
   _atom_site_occupancy
   _atom_site_fract_x
   _atom_site_fract_y
   _atom_site_fract_z
   _atom_site_adp_type
   _atom_site_B_iso_or_equiv
   _atom_site_type_symbol
   K          1.0     0.282791      0.052908      0.400077     Biso  1.000000 K
   K          1.0     0.217206      0.552908      0.099916     Biso  1.000000 K
   K          1.0     0.717206      0.947100      0.599916     Biso  1.000000 K
   K          1.0     0.782791      0.447100      0.900077     Biso  1.000000 K
   O          1.0     0.804993      0.949870      0.330429     Biso  1.000000 O
   O          1.0     0.695003      0.449871      0.169564     Biso  1.000000 O
   O          1.0     0.195003      0.050137      0.669564     Biso  1.000000 O
   O          1.0     0.304994      0.550138      0.830429     Biso  1.000000 O
   O          1.0     0.484202      0.744194      0.546735     Biso  1.000000 O
   O          1.0     0.015795      0.244194      0.953257     Biso  1.000000 O
   O          1.0     0.515795      0.255814      0.453257     Biso  1.000000 O
   O          1.0     0.984202      0.755814      0.046735     Biso  1.000000 O
   N          1.0     0.724212      0.851144      0.293054     Biso  1.000000 N
   N          1.0     0.775786      0.351144      0.206939     Biso  1.000000 N
   N          1.0     0.275785      0.148863      0.706939     Biso  1.000000 N
   N          1.0     0.224212      0.648863      0.793054     Biso  1.000000 N
   N          1.0     0.477361      0.830705      0.214266     Biso  1.000000 N
   N          1.0     0.022637      0.330706      0.285728     Biso  1.000000 N
   N          1.0     0.522636      0.169302      0.785727     Biso  1.000000 N
   N          1.0     0.977361      0.669303      0.714266     Biso  1.000000 N
   N          1.0     0.471284      0.721557      0.199943     Biso  1.000000 N
   N          1.0     0.028714      0.221557      0.300050     Biso  1.000000 N
   N          1.0     0.528714      0.278451      0.800050     Biso  1.000000 N
   N          1.0     0.971284      0.778451      0.699943     Biso  1.000000 N
   N          1.0     0.702386      0.670864      0.265624     Biso  1.000000 N
   N          1.0     0.797611      0.170863      0.234369     Biso  1.000000 N
   N          1.0     0.297612      0.329145      0.734369     Biso  1.000000 N
   N          1.0     0.202386      0.829144      0.765624     Biso  1.000000 N
   N          1.0     0.261498      0.806564      0.479094     Biso  1.000000 N
   N          1.0     0.238498      0.306565      0.020899     Biso  1.000000 N
   N          1.0     0.738498      0.193443      0.520899     Biso  1.000000 N
   N          1.0     0.761499      0.693443      0.979094     Biso  1.000000 N
   N          1.0     0.455111      0.629703      0.522338     Biso  1.000000 N
   N          1.0     0.044887      0.129703      0.977655     Biso  1.000000 N
   N          1.0     0.544887      0.370306      0.477655     Biso  1.000000 N
   N          1.0     0.955111      0.870306      0.022338     Biso  1.000000 N
   N          1.0     0.130351      0.531153      0.377473     Biso  1.000000 N
   N          1.0     0.369647      0.031151      0.122520     Biso  1.000000 N
   N          1.0     0.869647      0.468857      0.622520     Biso  1.000000 N
   N          1.0     0.630351      0.968855      0.877473     Biso  1.000000 N
   H          1.0     0.909438      0.533957      0.332873     Biso  1.000000 H
   H          1.0     0.590559      0.033957      0.167120     Biso  1.000000 H
   H          1.0     0.090560      0.466051      0.667120     Biso  1.000000 H
   H          1.0     0.409438      0.966051      0.832873     Biso  1.000000 H
   H          1.0     0.242686      0.456649      0.398242     Biso  1.000000 H
   H          1.0     0.257311      0.956650      0.101750     Biso  1.000000 H
   H          1.0     0.757312      0.543358      0.601750     Biso  1.000000 H
   H          1.0     0.742686      0.043359      0.898243     Biso  1.000000 H
   C          1.0     0.099579      0.732569      0.415018     Biso  1.000000 C
   C          1.0     0.400419      0.232568      0.084975     Biso  1.000000 C
   C          1.0     0.900419      0.267440      0.584975     Biso  1.000000 C
   C          1.0     0.599579      0.767439      0.915018     Biso  1.000000 C
   C          1.0     0.858297      0.752302      0.325240     Biso  1.000000 C
   C          1.0     0.641699      0.252302      0.174753     Biso  1.000000 C
   C          1.0     0.141698      0.247706      0.674752     Biso  1.000000 C
   C          1.0     0.358298      0.747706      0.825240     Biso  1.000000 C
   C          1.0     0.220979      0.622050      0.438872     Biso  1.000000 C
   C          1.0     0.279015      0.122051      0.061120     Biso  1.000000 C
   C          1.0     0.779015      0.377957      0.561120     Biso  1.000000 C
   C          1.0     0.720980      0.877958      0.938872     Biso  1.000000 C
