#======================================================================

# CRYSTAL DATA

#----------------------------------------------------------------------

data_VESTA_phase_1


_chemical_name_common                  '# Quantum Espresso PWSCF output snapsh'
_cell_length_a                         3.96788
_cell_length_b                         11.88146
_cell_length_c                         10.52791
_cell_angle_alpha                      89.99992
_cell_angle_beta                       86.79738
_cell_angle_gamma                      89.99993
_space_group_name_H-M_alt              'P 1'
_space_group_IT_number                 1

loop_
_space_group_symop_operation_xyz
   'x, y, z'

loop_
   _atom_site_label
   _atom_site_occupancy
   _atom_site_fract_x
   _atom_site_fract_y
   _atom_site_fract_z
   _atom_site_adp_type
   _atom_site_B_iso_or_equiv
   _atom_site_type_symbol
   K          1.0     0.283081      0.052862      0.400620     Biso  1.000000 K
   K          1.0     0.216916      0.552862      0.099378     Biso  1.000000 K
   K          1.0     0.716916      0.947145      0.599378     Biso  1.000000 K
   K          1.0     0.783081      0.447145      0.900620     Biso  1.000000 K
   O          1.0     0.806175      0.950220      0.329221     Biso  1.000000 O
   O          1.0     0.693821      0.450220      0.170777     Biso  1.000000 O
   O          1.0     0.193820      0.049787      0.670777     Biso  1.000000 O
   O          1.0     0.306175      0.549788      0.829221     Biso  1.000000 O
   O          1.0     0.485052      0.744099      0.546817     Biso  1.000000 O
   O          1.0     0.014945      0.244099      0.953180     Biso  1.000000 O
   O          1.0     0.514945      0.255908      0.453180     Biso  1.000000 O
   O          1.0     0.985052      0.755908      0.046817     Biso  1.000000 O
   N          1.0     0.724014      0.851260      0.292419     Biso  1.000000 N
   N          1.0     0.775982      0.351262      0.207578     Biso  1.000000 N
   N          1.0     0.275982      0.148746      0.707578     Biso  1.000000 N
   N          1.0     0.224015      0.648744      0.792420     Biso  1.000000 N
   N          1.0     0.476326      0.830623      0.213727     Biso  1.000000 N
   N          1.0     0.023671      0.330624      0.286271     Biso  1.000000 N
   N          1.0     0.523670      0.169383      0.786271     Biso  1.000000 N
   N          1.0     0.976327      0.669385      0.713727     Biso  1.000000 N
   N          1.0     0.470168      0.721249      0.199756     Biso  1.000000 N
   N          1.0     0.029830      0.221249      0.300242     Biso  1.000000 N
   N          1.0     0.529830      0.278759      0.800242     Biso  1.000000 N
   N          1.0     0.970167      0.778758      0.699756     Biso  1.000000 N
   N          1.0     0.701836      0.670628      0.265591     Biso  1.000000 N
   N          1.0     0.798161      0.170627      0.234407     Biso  1.000000 N
   N          1.0     0.298162      0.329380      0.734407     Biso  1.000000 N
   N          1.0     0.201836      0.829379      0.765591     Biso  1.000000 N
   N          1.0     0.262086      0.806734      0.479081     Biso  1.000000 N
   N          1.0     0.237909      0.306734      0.020917     Biso  1.000000 N
   N          1.0     0.737909      0.193273      0.520917     Biso  1.000000 N
   N          1.0     0.762087      0.693273      0.979081     Biso  1.000000 N
   N          1.0     0.455338      0.629412      0.522416     Biso  1.000000 N
   N          1.0     0.044660      0.129412      0.977582     Biso  1.000000 N
   N          1.0     0.544659      0.370596      0.477582     Biso  1.000000 N
   N          1.0     0.955337      0.870596      0.022415     Biso  1.000000 N
   N          1.0     0.129371      0.531026      0.377233     Biso  1.000000 N
   N          1.0     0.370629      0.031025      0.122766     Biso  1.000000 N
   N          1.0     0.870626      0.468983      0.622765     Biso  1.000000 N
   N          1.0     0.629368      0.968980      0.877232     Biso  1.000000 N
   H          1.0     0.907756      0.534007      0.332582     Biso  1.000000 H
   H          1.0     0.592239      0.034007      0.167416     Biso  1.000000 H
   H          1.0     0.092241      0.466000      0.667416     Biso  1.000000 H
   H          1.0     0.407757      0.966000      0.832582     Biso  1.000000 H
   H          1.0     0.242366      0.456374      0.397732     Biso  1.000000 H
   H          1.0     0.257630      0.956374      0.102265     Biso  1.000000 H
   H          1.0     0.757631      0.543632      0.602264     Biso  1.000000 H
   H          1.0     0.742366      0.043634      0.897733     Biso  1.000000 H
   C          1.0     0.099389      0.732663      0.415037     Biso  1.000000 C
   C          1.0     0.400609      0.232662      0.084961     Biso  1.000000 C
   C          1.0     0.900608      0.267345      0.584961     Biso  1.000000 C
   C          1.0     0.599388      0.767344      0.915037     Biso  1.000000 C
   C          1.0     0.858219      0.752337      0.324965     Biso  1.000000 C
   C          1.0     0.641775      0.252337      0.175032     Biso  1.000000 C
   C          1.0     0.141775      0.247670      0.675032     Biso  1.000000 C
   C          1.0     0.358222      0.747671      0.824966     Biso  1.000000 C
   C          1.0     0.220564      0.621896      0.438860     Biso  1.000000 C
   C          1.0     0.279429      0.121896      0.061137     Biso  1.000000 C
   C          1.0     0.779430      0.378110      0.561137     Biso  1.000000 C
   C          1.0     0.720565      0.878112      0.938860     Biso  1.000000 C
