#======================================================================

# CRYSTAL DATA

#----------------------------------------------------------------------

data_VESTA_phase_1


_chemical_name_common                  '# Quantum Espresso PWSCF output snapsh'
_cell_length_a                         4.30805
_cell_length_b                         12.53134
_cell_length_c                         12.26242
_cell_angle_alpha                      90
_cell_angle_beta                       90.76052
_cell_angle_gamma                      90
_space_group_name_H-M_alt              'P 1'
_space_group_IT_number                 1

loop_
_space_group_symop_operation_xyz
   'x, y, z'

loop_
   _atom_site_label
   _atom_site_occupancy
   _atom_site_fract_x
   _atom_site_fract_y
   _atom_site_fract_z
   _atom_site_adp_type
   _atom_site_B_iso_or_equiv
   _atom_site_type_symbol
   K          1.0     0.266459      0.071960      0.368720     Biso  1.000000 K
   K          1.0     0.233542      0.571958      0.131279     Biso  1.000000 K
   K          1.0     0.733542      0.928039      0.631276     Biso  1.000000 K
   K          1.0     0.766458      0.428039      0.868718     Biso  1.000000 K
   O          1.0     0.781013      0.944904      0.399944     Biso  1.000000 O
   O          1.0     0.718987      0.444905      0.100053     Biso  1.000000 O
   O          1.0     0.218986      0.055095      0.600052     Biso  1.000000 O
   O          1.0     0.281013      0.555094      0.899943     Biso  1.000000 O
   O          1.0     0.446645      0.734485      0.556607     Biso  1.000000 O
   O          1.0     0.053356      0.234487      0.943387     Biso  1.000000 O
   O          1.0     0.553356      0.265513      0.443388     Biso  1.000000 O
   O          1.0     0.946645      0.765512      0.056610     Biso  1.000000 O
   N          1.0     0.724530      0.858796      0.344437     Biso  1.000000 N
   N          1.0     0.775471      0.358798      0.155561     Biso  1.000000 N
   N          1.0     0.275470      0.141202      0.655560     Biso  1.000000 N
   N          1.0     0.224530      0.641201      0.844436     Biso  1.000000 N
   N          1.0     0.504543      0.853532      0.264207     Biso  1.000000 N
   N          1.0     0.995456      0.353533      0.235792     Biso  1.000000 N
   N          1.0     0.495457      0.146466      0.735789     Biso  1.000000 N
   N          1.0     0.004544      0.646465      0.764205     Biso  1.000000 N
   N          1.0     0.504389      0.753901      0.228671     Biso  1.000000 N
   N          1.0     0.995612      0.253903      0.271328     Biso  1.000000 N
   N          1.0     0.495612      0.246097      0.771325     Biso  1.000000 N
   N          1.0     0.004387      0.746096      0.728668     Biso  1.000000 N
   N          1.0     0.716845      0.694484      0.282196     Biso  1.000000 N
   N          1.0     0.783156      0.194484      0.217802     Biso  1.000000 N
   N          1.0     0.283156      0.305514      0.717800     Biso  1.000000 N
   N          1.0     0.216843      0.805514      0.782193     Biso  1.000000 N
   N          1.0     0.229510      0.795544      0.501410     Biso  1.000000 N
   N          1.0     0.270490      0.295545      0.998588     Biso  1.000000 N
   N          1.0     0.770490      0.204454      0.498586     Biso  1.000000 N
   N          1.0     0.729510      0.704454      0.001408     Biso  1.000000 N
   N          1.0     0.439685      0.628145      0.521374     Biso  1.000000 N
   N          1.0     0.060315      0.128145      0.978619     Biso  1.000000 N
   N          1.0     0.560316      0.371854      0.478622     Biso  1.000000 N
   N          1.0     0.939685      0.871852      0.021377     Biso  1.000000 N
   N          1.0     0.153432      0.538280      0.382645     Biso  1.000000 N
   N          1.0     0.346568      0.038281      0.117354     Biso  1.000000 N
   N          1.0     0.846569      0.461719      0.617351     Biso  1.000000 N
   N          1.0     0.653431      0.961717      0.882642     Biso  1.000000 N
   H          1.0     0.941509      0.536626      0.345338     Biso  1.000000 H
   H          1.0     0.558490      0.036627      0.154661     Biso  1.000000 H
   H          1.0     0.058491      0.463372      0.654658     Biso  1.000000 H
   H          1.0     0.441509      0.963372      0.845335     Biso  1.000000 H
   H          1.0     0.254750      0.467373      0.405030     Biso  1.000000 H
   H          1.0     0.245250      0.967373      0.094967     Biso  1.000000 H
   H          1.0     0.745250      0.532625      0.594966     Biso  1.000000 H
   H          1.0     0.754750      0.032626      0.905029     Biso  1.000000 H
   C          1.0     0.091207      0.730251      0.431995     Biso  1.000000 C
   C          1.0     0.408794      0.230251      0.068002     Biso  1.000000 C
   C          1.0     0.908793      0.269748      0.568001     Biso  1.000000 C
   C          1.0     0.591207      0.769747      0.931994     Biso  1.000000 C
   C          1.0     0.854295      0.760087      0.355029     Biso  1.000000 C
   C          1.0     0.645705      0.260088      0.144969     Biso  1.000000 C
   C          1.0     0.145705      0.239911      0.644967     Biso  1.000000 C
   C          1.0     0.354296      0.739911      0.855027     Biso  1.000000 C
   C          1.0     0.222838      0.624768      0.443831     Biso  1.000000 C
   C          1.0     0.277163      0.124768      0.056167     Biso  1.000000 C
   C          1.0     0.777163      0.375231      0.556166     Biso  1.000000 C
   C          1.0     0.722837      0.875230      0.943829     Biso  1.000000 C
