#======================================================================

# CRYSTAL DATA

#----------------------------------------------------------------------

data_VESTA_phase_1


_chemical_name_common                  '# Quantum Espresso PWSCF output snapsh'
_cell_length_a                         4.18799
_cell_length_b                         12.53799
_cell_length_c                         11.99303
_cell_angle_alpha                      89.99999
_cell_angle_beta                       89.93203
_cell_angle_gamma                      90.00003
_space_group_name_H-M_alt              'P 1'
_space_group_IT_number                 1

loop_
_space_group_symop_operation_xyz
   'x, y, z'

loop_
   _atom_site_label
   _atom_site_occupancy
   _atom_site_fract_x
   _atom_site_fract_y
   _atom_site_fract_z
   _atom_site_adp_type
   _atom_site_B_iso_or_equiv
   _atom_site_type_symbol
   K          1.0     0.274722      0.073780      0.367223     Biso  1.000000 K
   K          1.0     0.225277      0.573780      0.132780     Biso  1.000000 K
   K          1.0     0.725277      0.926221      0.632780     Biso  1.000000 K
   K          1.0     0.774722      0.426222      0.867223     Biso  1.000000 K
   O          1.0     0.790204      0.946043      0.398966     Biso  1.000000 O
   O          1.0     0.709794      0.446043      0.101035     Biso  1.000000 O
   O          1.0     0.209795      0.053959      0.601036     Biso  1.000000 O
   O          1.0     0.290204      0.553959      0.898967     Biso  1.000000 O
   O          1.0     0.452918      0.731811      0.559370     Biso  1.000000 O
   O          1.0     0.047081      0.231811      0.940632     Biso  1.000000 O
   O          1.0     0.547081      0.268191      0.440632     Biso  1.000000 O
   O          1.0     0.952919      0.768191      0.059370     Biso  1.000000 O
   N          1.0     0.726053      0.860270      0.343161     Biso  1.000000 N
   N          1.0     0.773947      0.360269      0.156842     Biso  1.000000 N
   N          1.0     0.273947      0.139731      0.656842     Biso  1.000000 N
   N          1.0     0.226053      0.639732      0.843161     Biso  1.000000 N
   N          1.0     0.500197      0.856108      0.262236     Biso  1.000000 N
   N          1.0     0.999803      0.356108      0.237766     Biso  1.000000 N
   N          1.0     0.499802      0.143894      0.737766     Biso  1.000000 N
   N          1.0     0.000196      0.643894      0.762237     Biso  1.000000 N
   N          1.0     0.492222      0.756269      0.227303     Biso  1.000000 N
   N          1.0     0.007777      0.256269      0.272699     Biso  1.000000 N
   N          1.0     0.507777      0.243733      0.772700     Biso  1.000000 N
   N          1.0     0.992222      0.743733      0.727303     Biso  1.000000 N
   N          1.0     0.705292      0.695584      0.281849     Biso  1.000000 N
   N          1.0     0.794707      0.195584      0.218154     Biso  1.000000 N
   N          1.0     0.294708      0.304418      0.718154     Biso  1.000000 N
   N          1.0     0.205292      0.804418      0.781849     Biso  1.000000 N
   N          1.0     0.235293      0.794318      0.503187     Biso  1.000000 N
   N          1.0     0.264706      0.294318      0.996815     Biso  1.000000 N
   N          1.0     0.764706      0.205684      0.496815     Biso  1.000000 N
   N          1.0     0.735294      0.705683      0.003188     Biso  1.000000 N
   N          1.0     0.437934      0.625489      0.524354     Biso  1.000000 N
   N          1.0     0.062065      0.125489      0.975648     Biso  1.000000 N
   N          1.0     0.562065      0.374512      0.475648     Biso  1.000000 N
   N          1.0     0.937934      0.874512      0.024354     Biso  1.000000 N
   N          1.0     0.140570      0.537957      0.383256     Biso  1.000000 N
   N          1.0     0.359425      0.037956      0.116746     Biso  1.000000 N
   N          1.0     0.859428      0.462046      0.616746     Biso  1.000000 N
   N          1.0     0.640569      0.962044      0.883256     Biso  1.000000 N
   H          1.0     0.921471      0.537204      0.347057     Biso  1.000000 H
   H          1.0     0.578530      0.037204      0.152945     Biso  1.000000 H
   H          1.0     0.078529      0.462797      0.652945     Biso  1.000000 H
   H          1.0     0.421471      0.962797      0.847057     Biso  1.000000 H
   H          1.0     0.244141      0.466739      0.404585     Biso  1.000000 H
   H          1.0     0.255859      0.966740      0.095418     Biso  1.000000 H
   H          1.0     0.755859      0.533262      0.595418     Biso  1.000000 H
   H          1.0     0.744141      0.033263      0.904585     Biso  1.000000 H
   C          1.0     0.089454      0.729780      0.433322     Biso  1.000000 C
   C          1.0     0.410545      0.229780      0.066680     Biso  1.000000 C
   C          1.0     0.910545      0.270221      0.566680     Biso  1.000000 C
   C          1.0     0.589455      0.770222      0.933322     Biso  1.000000 C
   C          1.0     0.851029      0.760730      0.354774     Biso  1.000000 C
   C          1.0     0.648970      0.260730      0.145229     Biso  1.000000 C
   C          1.0     0.148968      0.239272      0.645228     Biso  1.000000 C
   C          1.0     0.351028      0.739272      0.854773     Biso  1.000000 C
   C          1.0     0.216521      0.623563      0.445660     Biso  1.000000 C
   C          1.0     0.283479      0.123563      0.054342     Biso  1.000000 C
   C          1.0     0.783478      0.376438      0.554342     Biso  1.000000 C
   C          1.0     0.716522      0.876439      0.945661     Biso  1.000000 C
