#======================================================================

# CRYSTAL DATA

#----------------------------------------------------------------------

data_VESTA_phase_1


_chemical_name_common                  '# Quantum Espresso PWSCF output snapsh'
_cell_length_a                         3.93812
_cell_length_b                         11.83217
_cell_length_c                         10.46838
_cell_angle_alpha                      89.99979
_cell_angle_beta                       86.46453
_cell_angle_gamma                      89.99983
_space_group_name_H-M_alt              'P 1'
_space_group_IT_number                 1

loop_
_space_group_symop_operation_xyz
   'x, y, z'

loop_
   _atom_site_label
   _atom_site_occupancy
   _atom_site_fract_x
   _atom_site_fract_y
   _atom_site_fract_z
   _atom_site_adp_type
   _atom_site_B_iso_or_equiv
   _atom_site_type_symbol
   K          1.0     0.283769      0.052796      0.401575     Biso  1.000000 K
   K          1.0     0.216228      0.552795      0.098422     Biso  1.000000 K
   K          1.0     0.716228      0.947211      0.598421     Biso  1.000000 K
   K          1.0     0.783769      0.447211      0.901575     Biso  1.000000 K
   O          1.0     0.808568      0.950881      0.327039     Biso  1.000000 O
   O          1.0     0.691427      0.450881      0.172958     Biso  1.000000 O
   O          1.0     0.191426      0.049125      0.672958     Biso  1.000000 O
   O          1.0     0.308568      0.549127      0.827039     Biso  1.000000 O
   O          1.0     0.486767      0.743911      0.546962     Biso  1.000000 O
   O          1.0     0.013230      0.243911      0.953034     Biso  1.000000 O
   O          1.0     0.513231      0.256095      0.453034     Biso  1.000000 O
   O          1.0     0.986766      0.756095      0.046962     Biso  1.000000 O
   N          1.0     0.723783      0.851490      0.291295     Biso  1.000000 N
   N          1.0     0.776212      0.351492      0.208701     Biso  1.000000 N
   N          1.0     0.276212      0.148516      0.708701     Biso  1.000000 N
   N          1.0     0.223784      0.648514      0.791295     Biso  1.000000 N
   N          1.0     0.474556      0.830484      0.212784     Biso  1.000000 N
   N          1.0     0.025440      0.330486      0.287213     Biso  1.000000 N
   N          1.0     0.525439      0.169522      0.787213     Biso  1.000000 N
   N          1.0     0.974557      0.669524      0.712784     Biso  1.000000 N
   N          1.0     0.468269      0.720675      0.199440     Biso  1.000000 N
   N          1.0     0.031728      0.220675      0.300557     Biso  1.000000 N
   N          1.0     0.531729      0.279332      0.800557     Biso  1.000000 N
   N          1.0     0.968269      0.779331      0.699440     Biso  1.000000 N
   N          1.0     0.700984      0.670176      0.265542     Biso  1.000000 N
   N          1.0     0.799012      0.170176      0.234455     Biso  1.000000 N
   N          1.0     0.299015      0.329831      0.734455     Biso  1.000000 N
   N          1.0     0.200984      0.829830      0.765542     Biso  1.000000 N
   N          1.0     0.263338      0.807059      0.479056     Biso  1.000000 N
   N          1.0     0.236659      0.307057      0.020942     Biso  1.000000 N
   N          1.0     0.736658      0.192948      0.520941     Biso  1.000000 N
   N          1.0     0.763336      0.692949      0.979055     Biso  1.000000 N
   N          1.0     0.455867      0.628841      0.522548     Biso  1.000000 N
   N          1.0     0.044129      0.128841      0.977449     Biso  1.000000 N
   N          1.0     0.544129      0.371166      0.477449     Biso  1.000000 N
   N          1.0     0.955867      0.871166      0.022548     Biso  1.000000 N
   N          1.0     0.127651      0.530762      0.376777     Biso  1.000000 N
   N          1.0     0.372349      0.030760      0.123221     Biso  1.000000 N
   N          1.0     0.872345      0.469246      0.623220     Biso  1.000000 N
   N          1.0     0.627647      0.969244      0.876776     Biso  1.000000 N
   H          1.0     0.904669      0.534058      0.332096     Biso  1.000000 H
   H          1.0     0.595325      0.034058      0.167901     Biso  1.000000 H
   H          1.0     0.095327      0.465948      0.667901     Biso  1.000000 H
   H          1.0     0.404671      0.965949      0.832096     Biso  1.000000 H
   H          1.0     0.242008      0.455836      0.396741     Biso  1.000000 H
   H          1.0     0.257987      0.955836      0.103255     Biso  1.000000 H
   H          1.0     0.757989      0.544170      0.603254     Biso  1.000000 H
   H          1.0     0.742008      0.044172      0.896742     Biso  1.000000 H
   C          1.0     0.099141      0.732832      0.415092     Biso  1.000000 C
   C          1.0     0.400852      0.232832      0.084903     Biso  1.000000 C
   C          1.0     0.900856      0.267175      0.584905     Biso  1.000000 C
   C          1.0     0.599146      0.767173      0.915094     Biso  1.000000 C
   C          1.0     0.858247      0.752397      0.324470     Biso  1.000000 C
   C          1.0     0.641750      0.252396      0.175528     Biso  1.000000 C
   C          1.0     0.141747      0.247610      0.675526     Biso  1.000000 C
   C          1.0     0.358247      0.747611      0.824470     Biso  1.000000 C
   C          1.0     0.219883      0.621584      0.438841     Biso  1.000000 C
   C          1.0     0.280110      0.121585      0.061153     Biso  1.000000 C
   C          1.0     0.780112      0.378422      0.561154     Biso  1.000000 C
   C          1.0     0.719884      0.878422      0.938842     Biso  1.000000 C
