#======================================================================

# CRYSTAL DATA

#----------------------------------------------------------------------

data_VESTA_phase_1


_chemical_name_common                  '# Quantum Espresso PWSCF output snapsh'
_cell_length_a                         3.92408
_cell_length_b                         11.80865
_cell_length_c                         10.44085
_cell_angle_alpha                      90
_cell_angle_beta                       86.30495
_cell_angle_gamma                      89.99994
_space_group_name_H-M_alt              'P 1'
_space_group_IT_number                 1

loop_
_space_group_symop_operation_xyz
   'x, y, z'

loop_
   _atom_site_label
   _atom_site_occupancy
   _atom_site_fract_x
   _atom_site_fract_y
   _atom_site_fract_z
   _atom_site_adp_type
   _atom_site_B_iso_or_equiv
   _atom_site_type_symbol
   K          1.0     0.284180      0.052767      0.402010     Biso  1.000000 K
   K          1.0     0.215814      0.552767      0.097985     Biso  1.000000 K
   K          1.0     0.715814      0.947238      0.597985     Biso  1.000000 K
   K          1.0     0.784180      0.447237      0.902010     Biso  1.000000 K
   O          1.0     0.809790      0.951185      0.326066     Biso  1.000000 O
   O          1.0     0.690201      0.451186      0.173929     Biso  1.000000 O
   O          1.0     0.190200      0.048819      0.673930     Biso  1.000000 O
   O          1.0     0.309791      0.548820      0.826066     Biso  1.000000 O
   O          1.0     0.487650      0.743822      0.547041     Biso  1.000000 O
   O          1.0     0.012344      0.243822      0.952953     Biso  1.000000 O
   O          1.0     0.512345      0.256182      0.452953     Biso  1.000000 O
   O          1.0     0.987649      0.756182      0.047041     Biso  1.000000 O
   N          1.0     0.723763      0.851601      0.290811     Biso  1.000000 N
   N          1.0     0.776230      0.351602      0.209183     Biso  1.000000 N
   N          1.0     0.276229      0.148403      0.709183     Biso  1.000000 N
   N          1.0     0.223763      0.648402      0.790811     Biso  1.000000 N
   N          1.0     0.473845      0.830424      0.212372     Biso  1.000000 N
   N          1.0     0.026148      0.330426      0.287624     Biso  1.000000 N
   N          1.0     0.526147      0.169580      0.787624     Biso  1.000000 N
   N          1.0     0.973846      0.669582      0.712372     Biso  1.000000 N
   N          1.0     0.467514      0.720407      0.199311     Biso  1.000000 N
   N          1.0     0.032480      0.220407      0.300684     Biso  1.000000 N
   N          1.0     0.532481      0.279597      0.800684     Biso  1.000000 N
   N          1.0     0.967514      0.779597      0.699311     Biso  1.000000 N
   N          1.0     0.700713      0.669964      0.265540     Biso  1.000000 N
   N          1.0     0.799282      0.169964      0.234456     Biso  1.000000 N
   N          1.0     0.299283      0.330041      0.734455     Biso  1.000000 N
   N          1.0     0.200711      0.830040      0.765540     Biso  1.000000 N
   N          1.0     0.263981      0.807219      0.479071     Biso  1.000000 N
   N          1.0     0.236011      0.307218      0.020924     Biso  1.000000 N
   N          1.0     0.736012      0.192786      0.520924     Biso  1.000000 N
   N          1.0     0.763981      0.692785      0.979071     Biso  1.000000 N
   N          1.0     0.456151      0.628577      0.522618     Biso  1.000000 N
   N          1.0     0.043842      0.128577      0.977377     Biso  1.000000 N
   N          1.0     0.543842      0.371428      0.477377     Biso  1.000000 N
   N          1.0     0.956151      0.871428      0.022618     Biso  1.000000 N
   N          1.0     0.126938      0.530639      0.376567     Biso  1.000000 N
   N          1.0     0.373055      0.030638      0.123428     Biso  1.000000 N
   N          1.0     0.873055      0.469366      0.623428     Biso  1.000000 N
   N          1.0     0.626938      0.969363      0.876567     Biso  1.000000 N
   H          1.0     0.903277      0.534047      0.331899     Biso  1.000000 H
   H          1.0     0.596716      0.034048      0.168096     Biso  1.000000 H
   H          1.0     0.096716      0.465956      0.668096     Biso  1.000000 H
   H          1.0     0.403277      0.965957      0.831899     Biso  1.000000 H
   H          1.0     0.242031      0.455598      0.396292     Biso  1.000000 H
   H          1.0     0.257961      0.955599      0.103702     Biso  1.000000 H
   H          1.0     0.757963      0.544406      0.603701     Biso  1.000000 H
   H          1.0     0.742031      0.044407      0.896293     Biso  1.000000 H
   C          1.0     0.099085      0.732921      0.415151     Biso  1.000000 C
   C          1.0     0.400912      0.232921      0.084845     Biso  1.000000 C
   C          1.0     0.900910      0.267083      0.584844     Biso  1.000000 C
   C          1.0     0.599083      0.767082      0.915150     Biso  1.000000 C
   C          1.0     0.858350      0.752427      0.324263     Biso  1.000000 C
   C          1.0     0.641641      0.252427      0.175731     Biso  1.000000 C
   C          1.0     0.141641      0.247578      0.675731     Biso  1.000000 C
   C          1.0     0.358353      0.747578      0.824265     Biso  1.000000 C
   C          1.0     0.219621      0.621445      0.438841     Biso  1.000000 C
   C          1.0     0.280371      0.121444      0.061153     Biso  1.000000 C
   C          1.0     0.780371      0.378559      0.561152     Biso  1.000000 C
   C          1.0     0.719620      0.878560      0.938840     Biso  1.000000 C
