#======================================================================

# CRYSTAL DATA

#----------------------------------------------------------------------

data_VESTA_phase_1


_chemical_name_common                  '# Quantum Espresso PWSCF output snapsh'
_cell_length_a                         3.91049
_cell_length_b                         11.78575
_cell_length_c                         10.41495
_cell_angle_alpha                      89.99995
_cell_angle_beta                       86.14729
_cell_angle_gamma                      90.00003
_space_group_name_H-M_alt              'P 1'
_space_group_IT_number                 1

loop_
_space_group_symop_operation_xyz
   'x, y, z'

loop_
   _atom_site_label
   _atom_site_occupancy
   _atom_site_fract_x
   _atom_site_fract_y
   _atom_site_fract_z
   _atom_site_adp_type
   _atom_site_B_iso_or_equiv
   _atom_site_type_symbol
   K          1.0     0.284550      0.052776      0.402415     Biso  1.000000 K
   K          1.0     0.215439      0.552776      0.097584     Biso  1.000000 K
   K          1.0     0.715438      0.947224      0.597585     Biso  1.000000 K
   K          1.0     0.784550      0.447224      0.902415     Biso  1.000000 K
   O          1.0     0.810964      0.951484      0.325181     Biso  1.000000 O
   O          1.0     0.689023      0.451484      0.174819     Biso  1.000000 O
   O          1.0     0.189023      0.048516      0.674819     Biso  1.000000 O
   O          1.0     0.310965      0.548516      0.825180     Biso  1.000000 O
   O          1.0     0.488464      0.743733      0.547161     Biso  1.000000 O
   O          1.0     0.011524      0.243733      0.952839     Biso  1.000000 O
   O          1.0     0.511524      0.256267      0.452839     Biso  1.000000 O
   O          1.0     0.988465      0.756267      0.047161     Biso  1.000000 O
   N          1.0     0.723732      0.851715      0.290396     Biso  1.000000 N
   N          1.0     0.776257      0.351715      0.209604     Biso  1.000000 N
   N          1.0     0.276257      0.148285      0.709604     Biso  1.000000 N
   N          1.0     0.223732      0.648285      0.790396     Biso  1.000000 N
   N          1.0     0.473146      0.830376      0.212038     Biso  1.000000 N
   N          1.0     0.026843      0.330376      0.287962     Biso  1.000000 N
   N          1.0     0.526843      0.169624      0.787962     Biso  1.000000 N
   N          1.0     0.973146      0.669624      0.712038     Biso  1.000000 N
   N          1.0     0.466773      0.720158      0.199248     Biso  1.000000 N
   N          1.0     0.033216      0.220158      0.300751     Biso  1.000000 N
   N          1.0     0.533216      0.279842      0.800751     Biso  1.000000 N
   N          1.0     0.966773      0.779842      0.699248     Biso  1.000000 N
   N          1.0     0.700442      0.669765      0.265587     Biso  1.000000 N
   N          1.0     0.799547      0.169765      0.234413     Biso  1.000000 N
   N          1.0     0.299547      0.330235      0.734413     Biso  1.000000 N
   N          1.0     0.200441      0.830235      0.765587     Biso  1.000000 N
   N          1.0     0.264567      0.807371      0.479132     Biso  1.000000 N
   N          1.0     0.235421      0.307370      0.020867     Biso  1.000000 N
   N          1.0     0.735421      0.192630      0.520867     Biso  1.000000 N
   N          1.0     0.764568      0.692630      0.979132     Biso  1.000000 N
   N          1.0     0.456438      0.628319      0.522717     Biso  1.000000 N
   N          1.0     0.043550      0.128319      0.977283     Biso  1.000000 N
   N          1.0     0.543551      0.371681      0.477283     Biso  1.000000 N
   N          1.0     0.956438      0.871681      0.022717     Biso  1.000000 N
   N          1.0     0.126343      0.530527      0.376385     Biso  1.000000 N
   N          1.0     0.373646      0.030527      0.123614     Biso  1.000000 N
   N          1.0     0.873646      0.469473      0.623614     Biso  1.000000 N
   N          1.0     0.626343      0.969473      0.876385     Biso  1.000000 N
   H          1.0     0.901999      0.534051      0.331754     Biso  1.000000 H
   H          1.0     0.597990      0.034051      0.168245     Biso  1.000000 H
   H          1.0     0.097990      0.465949      0.668245     Biso  1.000000 H
   H          1.0     0.401998      0.965949      0.831755     Biso  1.000000 H
   H          1.0     0.242164      0.455378      0.395885     Biso  1.000000 H
   H          1.0     0.257826      0.955378      0.104115     Biso  1.000000 H
   H          1.0     0.757826      0.544622      0.604115     Biso  1.000000 H
   H          1.0     0.742163      0.044622      0.895885     Biso  1.000000 H
   C          1.0     0.098982      0.733005      0.415260     Biso  1.000000 C
   C          1.0     0.401007      0.233005      0.084739     Biso  1.000000 C
   C          1.0     0.901007      0.266995      0.584739     Biso  1.000000 C
   C          1.0     0.598981      0.766995      0.915260     Biso  1.000000 C
   C          1.0     0.858455      0.752460      0.324115     Biso  1.000000 C
   C          1.0     0.641533      0.252460      0.175885     Biso  1.000000 C
   C          1.0     0.141533      0.247540      0.675885     Biso  1.000000 C
   C          1.0     0.358456      0.747540      0.824115     Biso  1.000000 C
   C          1.0     0.219362      0.621308      0.438886     Biso  1.000000 C
   C          1.0     0.280628      0.121308      0.061114     Biso  1.000000 C
   C          1.0     0.780627      0.378692      0.561113     Biso  1.000000 C
   C          1.0     0.719361      0.878692      0.938886     Biso  1.000000 C
