#======================================================================

# CRYSTAL DATA

#----------------------------------------------------------------------

data_VESTA_phase_1


_chemical_name_common                  '# Quantum Espresso PWSCF output snapsh'
_cell_length_a                         3.89714
_cell_length_b                         11.76449
_cell_length_c                         10.38970
_cell_angle_alpha                      90
_cell_angle_beta                       85.99957
_cell_angle_gamma                      90
_space_group_name_H-M_alt              'P 1'
_space_group_IT_number                 1

loop_
_space_group_symop_operation_xyz
   'x, y, z'

loop_
   _atom_site_label
   _atom_site_occupancy
   _atom_site_fract_x
   _atom_site_fract_y
   _atom_site_fract_z
   _atom_site_adp_type
   _atom_site_B_iso_or_equiv
   _atom_site_type_symbol
   K          1.0     0.284867      0.052743      0.402872     Biso  1.000000 K
   K          1.0     0.215081      0.552763      0.097217     Biso  1.000000 K
   K          1.0     0.715081      0.947231      0.597215     Biso  1.000000 K
   K          1.0     0.784867      0.447255      0.902870     Biso  1.000000 K
   O          1.0     0.812036      0.951716      0.324370     Biso  1.000000 O
   O          1.0     0.687940      0.451714      0.175765     Biso  1.000000 O
   O          1.0     0.187940      0.048284      0.675763     Biso  1.000000 O
   O          1.0     0.312037      0.548278      0.824366     Biso  1.000000 O
   O          1.0     0.489338      0.743619      0.547109     Biso  1.000000 O
   O          1.0     0.010655      0.243668      0.952884     Biso  1.000000 O
   O          1.0     0.510655      0.256330      0.452886     Biso  1.000000 O
   O          1.0     0.989339      0.756375      0.047111     Biso  1.000000 O
   N          1.0     0.723671      0.851807      0.289924     Biso  1.000000 N
   N          1.0     0.776335      0.351783      0.210132     Biso  1.000000 N
   N          1.0     0.276335      0.148215      0.710130     Biso  1.000000 N
   N          1.0     0.223671      0.648187      0.789922     Biso  1.000000 N
   N          1.0     0.472436      0.830357      0.211614     Biso  1.000000 N
   N          1.0     0.027575      0.330292      0.288428     Biso  1.000000 N
   N          1.0     0.527575      0.169706      0.788426     Biso  1.000000 N
   N          1.0     0.972436      0.669637      0.711612     Biso  1.000000 N
   N          1.0     0.466042      0.719966      0.199006     Biso  1.000000 N
   N          1.0     0.033932      0.219895      0.300985     Biso  1.000000 N
   N          1.0     0.533933      0.280103      0.800983     Biso  1.000000 N
   N          1.0     0.966042      0.780028      0.699004     Biso  1.000000 N
   N          1.0     0.700171      0.669585      0.265425     Biso  1.000000 N
   N          1.0     0.799786      0.169551      0.234543     Biso  1.000000 N
   N          1.0     0.299786      0.330447      0.734541     Biso  1.000000 N
   N          1.0     0.200170      0.830409      0.765423     Biso  1.000000 N
   N          1.0     0.265196      0.807481      0.479029     Biso  1.000000 N
   N          1.0     0.234795      0.307516      0.020982     Biso  1.000000 N
   N          1.0     0.734795      0.192482      0.520980     Biso  1.000000 N
   N          1.0     0.765198      0.692513      0.979027     Biso  1.000000 N
   N          1.0     0.456762      0.628040      0.522673     Biso  1.000000 N
   N          1.0     0.043219      0.128084      0.977292     Biso  1.000000 N
   N          1.0     0.543220      0.371914      0.477295     Biso  1.000000 N
   N          1.0     0.956761      0.871954      0.022675     Biso  1.000000 N
   N          1.0     0.125504      0.530393      0.376143     Biso  1.000000 N
   N          1.0     0.374474      0.030410      0.123800     Biso  1.000000 N
   N          1.0     0.874475      0.469588      0.623797     Biso  1.000000 N
   N          1.0     0.625504      0.969600      0.876140     Biso  1.000000 N
   H          1.0     0.900551      0.534061      0.331489     Biso  1.000000 H
   H          1.0     0.599468      0.034078      0.168424     Biso  1.000000 H
   H          1.0     0.099468      0.465920      0.668421     Biso  1.000000 H
   H          1.0     0.400550      0.965933      0.831487     Biso  1.000000 H
   H          1.0     0.241897      0.455125      0.395393     Biso  1.000000 H
   H          1.0     0.258170      0.955140      0.104470     Biso  1.000000 H
   H          1.0     0.758171      0.544854      0.604468     Biso  1.000000 H
   H          1.0     0.741896      0.044873      0.895391     Biso  1.000000 H
   C          1.0     0.098909      0.733048      0.415212     Biso  1.000000 C
   C          1.0     0.401075      0.233072      0.084785     Biso  1.000000 C
   C          1.0     0.901076      0.266926      0.584783     Biso  1.000000 C
   C          1.0     0.598908      0.766946      0.915210     Biso  1.000000 C
   C          1.0     0.858545      0.752464      0.323823     Biso  1.000000 C
   C          1.0     0.641425      0.252460      0.176190     Biso  1.000000 C
   C          1.0     0.141425      0.247538      0.676188     Biso  1.000000 C
   C          1.0     0.358547      0.747529      0.823820     Biso  1.000000 C
   C          1.0     0.219097      0.621149      0.438801     Biso  1.000000 C
   C          1.0     0.280886      0.121179      0.061167     Biso  1.000000 C
   C          1.0     0.780885      0.378819      0.561163     Biso  1.000000 C
   C          1.0     0.719096      0.878845      0.938798     Biso  1.000000 C
