#======================================================================

# CRYSTAL DATA

#----------------------------------------------------------------------

data_VESTA_phase_1


_chemical_name_common                  '# Quantum Espresso PWSCF output snapsh'
_cell_length_a                         3.87372
_cell_length_b                         11.72046
_cell_length_c                         10.33984
_cell_angle_alpha                      89.99996
_cell_angle_beta                       85.72364
_cell_angle_gamma                      89.99989
_space_group_name_H-M_alt              'P 1'
_space_group_IT_number                 1

loop_
_space_group_symop_operation_xyz
   'x, y, z'

loop_
   _atom_site_label
   _atom_site_occupancy
   _atom_site_fract_x
   _atom_site_fract_y
   _atom_site_fract_z
   _atom_site_adp_type
   _atom_site_B_iso_or_equiv
   _atom_site_type_symbol
   K          1.0     0.285584      0.052727      0.403539     Biso  1.000000 K
   K          1.0     0.214437      0.552733      0.096463     Biso  1.000000 K
   K          1.0     0.714436      0.947257      0.596463     Biso  1.000000 K
   K          1.0     0.785585      0.447264      0.903539     Biso  1.000000 K
   O          1.0     0.814128      0.952274      0.322792     Biso  1.000000 O
   O          1.0     0.685897      0.452272      0.177215     Biso  1.000000 O
   O          1.0     0.185896      0.047718      0.677215     Biso  1.000000 O
   O          1.0     0.314128      0.547717      0.822791     Biso  1.000000 O
   O          1.0     0.490811      0.743487      0.547377     Biso  1.000000 O
   O          1.0     0.009181      0.243502      0.952615     Biso  1.000000 O
   O          1.0     0.509180      0.256489      0.452615     Biso  1.000000 O
   O          1.0     0.990811      0.756504      0.047377     Biso  1.000000 O
   N          1.0     0.723475      0.852019      0.289230     Biso  1.000000 N
   N          1.0     0.776534      0.352017      0.210770     Biso  1.000000 N
   N          1.0     0.276534      0.147975      0.710770     Biso  1.000000 N
   N          1.0     0.223475      0.647970      0.789230     Biso  1.000000 N
   N          1.0     0.471057      0.830249      0.211054     Biso  1.000000 N
   N          1.0     0.028947      0.330233      0.288946     Biso  1.000000 N
   N          1.0     0.528946      0.169757      0.788946     Biso  1.000000 N
   N          1.0     0.971057      0.669742      0.711053     Biso  1.000000 N
   N          1.0     0.464674      0.719471      0.198942     Biso  1.000000 N
   N          1.0     0.035309      0.219455      0.301049     Biso  1.000000 N
   N          1.0     0.535309      0.280536      0.801049     Biso  1.000000 N
   N          1.0     0.964675      0.780519      0.698942     Biso  1.000000 N
   N          1.0     0.699670      0.669204      0.265571     Biso  1.000000 N
   N          1.0     0.800306      0.169198      0.234417     Biso  1.000000 N
   N          1.0     0.300307      0.330794      0.734417     Biso  1.000000 N
   N          1.0     0.199670      0.830787      0.765571     Biso  1.000000 N
   N          1.0     0.266282      0.807810      0.479184     Biso  1.000000 N
   N          1.0     0.233719      0.307820      0.020810     Biso  1.000000 N
   N          1.0     0.733717      0.192170      0.520810     Biso  1.000000 N
   N          1.0     0.766280      0.692181      0.979183     Biso  1.000000 N
   N          1.0     0.457237      0.627577      0.522906     Biso  1.000000 N
   N          1.0     0.042741      0.127591      0.977082     Biso  1.000000 N
   N          1.0     0.542741      0.372400      0.477083     Biso  1.000000 N
   N          1.0     0.957237      0.872414      0.022906     Biso  1.000000 N
   N          1.0     0.124198      0.530212      0.375850     Biso  1.000000 N
   N          1.0     0.375771      0.030219      0.124137     Biso  1.000000 N
   N          1.0     0.875772      0.469772      0.624137     Biso  1.000000 N
   N          1.0     0.624199      0.969779      0.875851     Biso  1.000000 N
   H          1.0     0.898008      0.534146      0.331268     Biso  1.000000 H
   H          1.0     0.601962      0.034154      0.168718     Biso  1.000000 H
   H          1.0     0.101962      0.465837      0.668718     Biso  1.000000 H
   H          1.0     0.398007      0.965845      0.831269     Biso  1.000000 H
   H          1.0     0.241802      0.454713      0.394653     Biso  1.000000 H
   H          1.0     0.258159      0.954723      0.105330     Biso  1.000000 H
   H          1.0     0.758160      0.545268      0.605330     Biso  1.000000 H
   H          1.0     0.741802      0.045278      0.894654     Biso  1.000000 H
   C          1.0     0.098695      0.733237      0.415463     Biso  1.000000 C
   C          1.0     0.401295      0.233246      0.084528     Biso  1.000000 C
   C          1.0     0.901297      0.266746      0.584529     Biso  1.000000 C
   C          1.0     0.598697      0.766753      0.915464     Biso  1.000000 C
   C          1.0     0.858683      0.752535      0.323599     Biso  1.000000 C
   C          1.0     0.641309      0.252534      0.176394     Biso  1.000000 C
   C          1.0     0.141308      0.247456      0.676394     Biso  1.000000 C
   C          1.0     0.358682      0.747456      0.823598     Biso  1.000000 C
   C          1.0     0.218576      0.620919      0.438925     Biso  1.000000 C
   C          1.0     0.281404      0.120929      0.061063     Biso  1.000000 C
   C          1.0     0.781403      0.379062      0.561063     Biso  1.000000 C
   C          1.0     0.718574      0.879072      0.938925     Biso  1.000000 C
