#======================================================================

# CRYSTAL DATA

#----------------------------------------------------------------------

data_VESTA_phase_1


_chemical_name_common                  '# Quantum Espresso PWSCF output snapsh'
_cell_length_a                         3.83211
_cell_length_b                         11.63832
_cell_length_c                         10.24822
_cell_angle_alpha                      90.00010
_cell_angle_beta                       85.22532
_cell_angle_gamma                      90.00016
_space_group_name_H-M_alt              'P 1'
_space_group_IT_number                 1

loop_
_space_group_symop_operation_xyz
   'x, y, z'

loop_
   _atom_site_label
   _atom_site_occupancy
   _atom_site_fract_x
   _atom_site_fract_y
   _atom_site_fract_z
   _atom_site_adp_type
   _atom_site_B_iso_or_equiv
   _atom_site_type_symbol
   K          1.0     0.286889      0.052690      0.404798     Biso  1.000000 K
   K          1.0     0.213095      0.552691      0.095201     Biso  1.000000 K
   K          1.0     0.713094      0.947290      0.595201     Biso  1.000000 K
   K          1.0     0.786889      0.447290      0.904798     Biso  1.000000 K
   O          1.0     0.817856      0.953243      0.320307     Biso  1.000000 O
   O          1.0     0.682127      0.453244      0.179693     Biso  1.000000 O
   O          1.0     0.182127      0.046737      0.679693     Biso  1.000000 O
   O          1.0     0.317857      0.546737      0.820307     Biso  1.000000 O
   O          1.0     0.493370      0.743206      0.547956     Biso  1.000000 O
   O          1.0     0.006612      0.243207      0.952042     Biso  1.000000 O
   O          1.0     0.506612      0.256774      0.452042     Biso  1.000000 O
   O          1.0     0.993371      0.756775      0.047957     Biso  1.000000 O
   N          1.0     0.722981      0.852420      0.288216     Biso  1.000000 N
   N          1.0     0.777002      0.352419      0.211784     Biso  1.000000 N
   N          1.0     0.277002      0.147561      0.711784     Biso  1.000000 N
   N          1.0     0.222980      0.647560      0.788215     Biso  1.000000 N
   N          1.0     0.468479      0.830106      0.210246     Biso  1.000000 N
   N          1.0     0.031503      0.330105      0.289753     Biso  1.000000 N
   N          1.0     0.531503      0.169876      0.789753     Biso  1.000000 N
   N          1.0     0.968479      0.669874      0.710246     Biso  1.000000 N
   N          1.0     0.462188      0.718619      0.198936     Biso  1.000000 N
   N          1.0     0.037793      0.218618      0.301062     Biso  1.000000 N
   N          1.0     0.537793      0.281363      0.801062     Biso  1.000000 N
   N          1.0     0.962186      0.781362      0.698936     Biso  1.000000 N
   N          1.0     0.698752      0.668514      0.265897     Biso  1.000000 N
   N          1.0     0.801229      0.168513      0.234102     Biso  1.000000 N
   N          1.0     0.301229      0.331467      0.734101     Biso  1.000000 N
   N          1.0     0.198750      0.831467      0.765897     Biso  1.000000 N
   N          1.0     0.268103      0.808396      0.479588     Biso  1.000000 N
   N          1.0     0.231876      0.308397      0.020410     Biso  1.000000 N
   N          1.0     0.731877      0.191584      0.520410     Biso  1.000000 N
   N          1.0     0.768108      0.691583      0.979590     Biso  1.000000 N
   N          1.0     0.457992      0.626691      0.523383     Biso  1.000000 N
   N          1.0     0.041991      0.126691      0.976616     Biso  1.000000 N
   N          1.0     0.541990      0.373289      0.476616     Biso  1.000000 N
   N          1.0     0.957991      0.873290      0.023383     Biso  1.000000 N
   N          1.0     0.121876      0.529868      0.375312     Biso  1.000000 N
   N          1.0     0.378106      0.029867      0.124688     Biso  1.000000 N
   N          1.0     0.878106      0.470114      0.624688     Biso  1.000000 N
   N          1.0     0.621875      0.970112      0.875311     Biso  1.000000 N
   H          1.0     0.893452      0.534241      0.330857     Biso  1.000000 H
   H          1.0     0.606527      0.034242      0.169141     Biso  1.000000 H
   H          1.0     0.106527      0.465739      0.669141     Biso  1.000000 H
   H          1.0     0.393452      0.965740      0.830857     Biso  1.000000 H
   H          1.0     0.242028      0.453986      0.393211     Biso  1.000000 H
   H          1.0     0.257952      0.953988      0.106787     Biso  1.000000 H
   H          1.0     0.757951      0.545993      0.606787     Biso  1.000000 H
   H          1.0     0.742028      0.045995      0.893212     Biso  1.000000 H
   C          1.0     0.098125      0.733564      0.416063     Biso  1.000000 C
   C          1.0     0.401861      0.233563      0.083938     Biso  1.000000 C
   C          1.0     0.901860      0.266417      0.583938     Biso  1.000000 C
   C          1.0     0.598115      0.766418      0.916059     Biso  1.000000 C
   C          1.0     0.858854      0.752643      0.323321     Biso  1.000000 C
   C          1.0     0.641125      0.252643      0.176677     Biso  1.000000 C
   C          1.0     0.141125      0.247338      0.676677     Biso  1.000000 C
   C          1.0     0.358862      0.747338      0.823324     Biso  1.000000 C
   C          1.0     0.217513      0.620472      0.439216     Biso  1.000000 C
   C          1.0     0.282463      0.120475      0.060781     Biso  1.000000 C
   C          1.0     0.782463      0.379506      0.560781     Biso  1.000000 C
   C          1.0     0.717515      0.879509      0.939216     Biso  1.000000 C
