#======================================================================

# CRYSTAL DATA

#----------------------------------------------------------------------

data_VESTA_phase_1


_chemical_name_common                  '# Quantum Espresso PWSCF output snapsh'
_cell_length_a                         4.21908
_cell_length_b                         12.54526
_cell_length_c                         12.07154
_cell_angle_alpha                      90.00002
_cell_angle_beta                       90.16890
_cell_angle_gamma                      90
_space_group_name_H-M_alt              'P 1'
_space_group_IT_number                 1

loop_
_space_group_symop_operation_xyz
   'x, y, z'

loop_
   _atom_site_label
   _atom_site_occupancy
   _atom_site_fract_x
   _atom_site_fract_y
   _atom_site_fract_z
   _atom_site_adp_type
   _atom_site_B_iso_or_equiv
   _atom_site_type_symbol
   K          1.0     0.272606      0.073445      0.367507     Biso  1.000000 K
   K          1.0     0.227393      0.573444      0.132492     Biso  1.000000 K
   K          1.0     0.727394      0.926561      0.632492     Biso  1.000000 K
   K          1.0     0.772606      0.426559      0.867507     Biso  1.000000 K
   O          1.0     0.787945      0.945711      0.399365     Biso  1.000000 O
   O          1.0     0.712053      0.445711      0.100634     Biso  1.000000 O
   O          1.0     0.212053      0.054294      0.600634     Biso  1.000000 O
   O          1.0     0.287946      0.554294      0.899365     Biso  1.000000 O
   O          1.0     0.451259      0.732366      0.558652     Biso  1.000000 O
   O          1.0     0.048741      0.232366      0.941348     Biso  1.000000 O
   O          1.0     0.548741      0.267639      0.441347     Biso  1.000000 O
   O          1.0     0.951259      0.767639      0.058653     Biso  1.000000 O
   N          1.0     0.725742      0.859928      0.343629     Biso  1.000000 N
   N          1.0     0.774257      0.359928      0.156371     Biso  1.000000 N
   N          1.0     0.274257      0.140077      0.656371     Biso  1.000000 N
   N          1.0     0.225743      0.640077      0.843629     Biso  1.000000 N
   N          1.0     0.501523      0.855572      0.262868     Biso  1.000000 N
   N          1.0     0.998475      0.355572      0.237131     Biso  1.000000 N
   N          1.0     0.498475      0.144432      0.737131     Biso  1.000000 N
   N          1.0     0.001524      0.644432      0.762868     Biso  1.000000 N
   N          1.0     0.495454      0.755864      0.227733     Biso  1.000000 N
   N          1.0     0.004544      0.255864      0.272265     Biso  1.000000 N
   N          1.0     0.504546      0.244141      0.772265     Biso  1.000000 N
   N          1.0     0.995454      0.744141      0.727733     Biso  1.000000 N
   N          1.0     0.708188      0.695467      0.282001     Biso  1.000000 N
   N          1.0     0.791811      0.195468      0.217998     Biso  1.000000 N
   N          1.0     0.291812      0.304537      0.717998     Biso  1.000000 N
   N          1.0     0.208187      0.804537      0.782000     Biso  1.000000 N
   N          1.0     0.233792      0.794508      0.502784     Biso  1.000000 N
   N          1.0     0.266207      0.294509      0.997215     Biso  1.000000 N
   N          1.0     0.766207      0.205496      0.497215     Biso  1.000000 N
   N          1.0     0.733791      0.705497      0.002784     Biso  1.000000 N
   N          1.0     0.438309      0.626126      0.523531     Biso  1.000000 N
   N          1.0     0.061691      0.126126      0.976468     Biso  1.000000 N
   N          1.0     0.561691      0.373879      0.476467     Biso  1.000000 N
   N          1.0     0.938308      0.873878      0.023532     Biso  1.000000 N
   N          1.0     0.143808      0.538104      0.383101     Biso  1.000000 N
   N          1.0     0.356192      0.038104      0.116899     Biso  1.000000 N
   N          1.0     0.856192      0.461901      0.616898     Biso  1.000000 N
   N          1.0     0.643806      0.961901      0.883101     Biso  1.000000 N
   H          1.0     0.926546      0.537104      0.346648     Biso  1.000000 H
   H          1.0     0.573452      0.037104      0.153352     Biso  1.000000 H
   H          1.0     0.073453      0.462900      0.653352     Biso  1.000000 H
   H          1.0     0.426546      0.962901      0.846648     Biso  1.000000 H
   H          1.0     0.246720      0.467010      0.404721     Biso  1.000000 H
   H          1.0     0.253279      0.967010      0.095278     Biso  1.000000 H
   H          1.0     0.753278      0.532996      0.595278     Biso  1.000000 H
   H          1.0     0.746719      0.032996      0.904721     Biso  1.000000 H
   C          1.0     0.089858      0.729873      0.433016     Biso  1.000000 C
   C          1.0     0.410140      0.229873      0.066983     Biso  1.000000 C
   C          1.0     0.910140      0.270132      0.566984     Biso  1.000000 C
   C          1.0     0.589860      0.770131      0.933016     Biso  1.000000 C
   C          1.0     0.851801      0.760621      0.354939     Biso  1.000000 C
   C          1.0     0.648200      0.260621      0.145060     Biso  1.000000 C
   C          1.0     0.148199      0.239384      0.645059     Biso  1.000000 C
   C          1.0     0.351800      0.739384      0.854939     Biso  1.000000 C
   C          1.0     0.218057      0.623884      0.445176     Biso  1.000000 C
   C          1.0     0.281941      0.123883      0.054823     Biso  1.000000 C
   C          1.0     0.781943      0.376123      0.554824     Biso  1.000000 C
   C          1.0     0.718057      0.876121      0.945176     Biso  1.000000 C
