#======================================================================

# CRYSTAL DATA

#----------------------------------------------------------------------

data_VESTA_phase_1


_chemical_name_common                  '# Quantum Espresso PWSCF output snapsh'
_cell_length_a                         3.82247
_cell_length_b                         11.61906
_cell_length_c                         10.22705
_cell_angle_alpha                      90.00005
_cell_angle_beta                       85.10831
_cell_angle_gamma                      90.00003
_space_group_name_H-M_alt              'P 1'
_space_group_IT_number                 1

loop_
_space_group_symop_operation_xyz
   'x, y, z'

loop_
   _atom_site_label
   _atom_site_occupancy
   _atom_site_fract_x
   _atom_site_fract_y
   _atom_site_fract_z
   _atom_site_adp_type
   _atom_site_B_iso_or_equiv
   _atom_site_type_symbol
   K          1.0     0.287152      0.052708      0.405098     Biso  1.000000 K
   K          1.0     0.212831      0.552709      0.094903     Biso  1.000000 K
   K          1.0     0.712831      0.947274      0.594903     Biso  1.000000 K
   K          1.0     0.787153      0.447274      0.905098     Biso  1.000000 K
   O          1.0     0.818692      0.953462      0.319783     Biso  1.000000 O
   O          1.0     0.681291      0.453462      0.180219     Biso  1.000000 O
   O          1.0     0.181291      0.046520      0.680219     Biso  1.000000 O
   O          1.0     0.318693      0.546520      0.819783     Biso  1.000000 O
   O          1.0     0.493946      0.743150      0.548104     Biso  1.000000 O
   O          1.0     0.006037      0.243151      0.951897     Biso  1.000000 O
   O          1.0     0.506036      0.256831      0.451897     Biso  1.000000 O
   O          1.0     0.993946      0.756832      0.048104     Biso  1.000000 O
   N          1.0     0.722835      0.852507      0.288024     Biso  1.000000 N
   N          1.0     0.777148      0.352507      0.211977     Biso  1.000000 N
   N          1.0     0.277148      0.147475      0.711977     Biso  1.000000 N
   N          1.0     0.222835      0.647475      0.788024     Biso  1.000000 N
   N          1.0     0.467871      0.830078      0.210097     Biso  1.000000 N
   N          1.0     0.032112      0.330077      0.289904     Biso  1.000000 N
   N          1.0     0.532112      0.169905      0.789904     Biso  1.000000 N
   N          1.0     0.967871      0.669904      0.710097     Biso  1.000000 N
   N          1.0     0.461612      0.718428      0.198958     Biso  1.000000 N
   N          1.0     0.038370      0.218428      0.301043     Biso  1.000000 N
   N          1.0     0.538370      0.281555      0.801043     Biso  1.000000 N
   N          1.0     0.961611      0.781554      0.698958     Biso  1.000000 N
   N          1.0     0.698555      0.668354      0.265985     Biso  1.000000 N
   N          1.0     0.801428      0.168353      0.234016     Biso  1.000000 N
   N          1.0     0.301428      0.331629      0.734016     Biso  1.000000 N
   N          1.0     0.198554      0.831629      0.765984     Biso  1.000000 N
   N          1.0     0.268490      0.808533      0.479697     Biso  1.000000 N
   N          1.0     0.231493      0.308534      0.020303     Biso  1.000000 N
   N          1.0     0.731493      0.191449      0.520303     Biso  1.000000 N
   N          1.0     0.768492      0.691448      0.979698     Biso  1.000000 N
   N          1.0     0.458191      0.626495      0.523509     Biso  1.000000 N
   N          1.0     0.041790      0.126496      0.976491     Biso  1.000000 N
   N          1.0     0.541789      0.373487      0.476491     Biso  1.000000 N
   N          1.0     0.958190      0.873487      0.023509     Biso  1.000000 N
   N          1.0     0.121403      0.529779      0.375203     Biso  1.000000 N
   N          1.0     0.378577      0.029781      0.124797     Biso  1.000000 N
   N          1.0     0.878577      0.470201      0.624797     Biso  1.000000 N
   N          1.0     0.621402      0.970203      0.875203     Biso  1.000000 N
   H          1.0     0.892452      0.534262      0.330785     Biso  1.000000 H
   H          1.0     0.607531      0.034262      0.169215     Biso  1.000000 H
   H          1.0     0.107530      0.465720      0.669216     Biso  1.000000 H
   H          1.0     0.392451      0.965721      0.830785     Biso  1.000000 H
   H          1.0     0.242177      0.453814      0.392907     Biso  1.000000 H
   H          1.0     0.257804      0.953814      0.107093     Biso  1.000000 H
   H          1.0     0.757804      0.546168      0.607093     Biso  1.000000 H
   H          1.0     0.742176      0.046168      0.892907     Biso  1.000000 H
   C          1.0     0.097979      0.733627      0.416218     Biso  1.000000 C
   C          1.0     0.402005      0.233628      0.083783     Biso  1.000000 C
   C          1.0     0.902005      0.266354      0.583783     Biso  1.000000 C
   C          1.0     0.597972      0.766356      0.916215     Biso  1.000000 C
   C          1.0     0.858899      0.752665      0.323275     Biso  1.000000 C
   C          1.0     0.641083      0.252665      0.176726     Biso  1.000000 C
   C          1.0     0.141082      0.247317      0.676725     Biso  1.000000 C
   C          1.0     0.358905      0.747317      0.823277     Biso  1.000000 C
   C          1.0     0.217316      0.620368      0.439293     Biso  1.000000 C
   C          1.0     0.282670      0.120366      0.060710     Biso  1.000000 C
   C          1.0     0.782669      0.379616      0.560709     Biso  1.000000 C
   C          1.0     0.717317      0.879615      0.939293     Biso  1.000000 C
