#======================================================================

# CRYSTAL DATA

#----------------------------------------------------------------------

data_VESTA_phase_1


_chemical_name_common                  '# Quantum Espresso PWSCF output snapsh'
_cell_length_a                         4.12098
_cell_length_b                         12.49513
_cell_length_c                         11.79687
_cell_angle_alpha                      90
_cell_angle_beta                       89.33774
_cell_angle_gamma                      90
_space_group_name_H-M_alt              'P 1'
_space_group_IT_number                 1

loop_
_space_group_symop_operation_xyz
   'x, y, z'

loop_
   _atom_site_label
   _atom_site_occupancy
   _atom_site_fract_x
   _atom_site_fract_y
   _atom_site_fract_z
   _atom_site_adp_type
   _atom_site_B_iso_or_equiv
   _atom_site_type_symbol
   K          1.0     0.279032      0.074363      0.366860     Biso  1.000000 K
   K          1.0     0.220976      0.574364      0.133148     Biso  1.000000 K
   K          1.0     0.720976      0.925637      0.633148     Biso  1.000000 K
   K          1.0     0.779032      0.425639      0.866860     Biso  1.000000 K
   O          1.0     0.794661      0.947049      0.397766     Biso  1.000000 O
   O          1.0     0.705339      0.447050      0.102240     Biso  1.000000 O
   O          1.0     0.205340      0.052953      0.602241     Biso  1.000000 O
   O          1.0     0.294662      0.552954      0.897768     Biso  1.000000 O
   O          1.0     0.456285      0.730989      0.561030     Biso  1.000000 O
   O          1.0     0.043710      0.230989      0.938972     Biso  1.000000 O
   O          1.0     0.543710      0.269014      0.438972     Biso  1.000000 O
   O          1.0     0.956285      0.769013      0.061031     Biso  1.000000 O
   N          1.0     0.726339      0.861057      0.341878     Biso  1.000000 N
   N          1.0     0.773658      0.361054      0.158127     Biso  1.000000 N
   N          1.0     0.273659      0.138945      0.658127     Biso  1.000000 N
   N          1.0     0.226341      0.638945      0.841878     Biso  1.000000 N
   N          1.0     0.496729      0.857079      0.260629     Biso  1.000000 N
   N          1.0     0.003267      0.357076      0.239377     Biso  1.000000 N
   N          1.0     0.503266      0.142926      0.739377     Biso  1.000000 N
   N          1.0     0.996728      0.642923      0.760629     Biso  1.000000 N
   N          1.0     0.484798      0.756709      0.226318     Biso  1.000000 N
   N          1.0     0.015197      0.256705      0.273684     Biso  1.000000 N
   N          1.0     0.515197      0.243297      0.773685     Biso  1.000000 N
   N          1.0     0.984798      0.743293      0.726318     Biso  1.000000 N
   N          1.0     0.698857      0.695458      0.281563     Biso  1.000000 N
   N          1.0     0.801140      0.195455      0.218436     Biso  1.000000 N
   N          1.0     0.301142      0.304546      0.718436     Biso  1.000000 N
   N          1.0     0.198858      0.804544      0.781563     Biso  1.000000 N
   N          1.0     0.238131      0.794296      0.504073     Biso  1.000000 N
   N          1.0     0.261867      0.294296      0.995928     Biso  1.000000 N
   N          1.0     0.761867      0.205707      0.495928     Biso  1.000000 N
   N          1.0     0.738131      0.705706      0.004074     Biso  1.000000 N
   N          1.0     0.437128      0.624265      0.526296     Biso  1.000000 N
   N          1.0     0.062869      0.124264      0.973707     Biso  1.000000 N
   N          1.0     0.562867      0.375737      0.473706     Biso  1.000000 N
   N          1.0     0.937128      0.875737      0.026296     Biso  1.000000 N
   N          1.0     0.134034      0.537528      0.383499     Biso  1.000000 N
   N          1.0     0.365964      0.037529      0.116504     Biso  1.000000 N
   N          1.0     0.865968      0.462473      0.616504     Biso  1.000000 N
   N          1.0     0.634034      0.962472      0.883499     Biso  1.000000 N
   H          1.0     0.910881      0.537205      0.347889     Biso  1.000000 H
   H          1.0     0.589132      0.037204      0.152105     Biso  1.000000 H
   H          1.0     0.089132      0.462796      0.652105     Biso  1.000000 H
   H          1.0     0.410882      0.962796      0.847889     Biso  1.000000 H
   H          1.0     0.239661      0.465971      0.404083     Biso  1.000000 H
   H          1.0     0.260341      0.965971      0.095919     Biso  1.000000 H
   H          1.0     0.760341      0.534030      0.595919     Biso  1.000000 H
   H          1.0     0.739662      0.034032      0.904084     Biso  1.000000 H
   C          1.0     0.088325      0.729717      0.434029     Biso  1.000000 C
   C          1.0     0.411674      0.229716      0.065971     Biso  1.000000 C
   C          1.0     0.911676      0.270285      0.565971     Biso  1.000000 C
   C          1.0     0.588327      0.770285      0.934029     Biso  1.000000 C
   C          1.0     0.849185      0.760908      0.354318     Biso  1.000000 C
   C          1.0     0.650817      0.260907      0.145684     Biso  1.000000 C
   C          1.0     0.150815      0.239095      0.645683     Biso  1.000000 C
   C          1.0     0.349185      0.739094      0.854316     Biso  1.000000 C
   C          1.0     0.213290      0.622898      0.446763     Biso  1.000000 C
   C          1.0     0.286708      0.122897      0.053239     Biso  1.000000 C
   C          1.0     0.786708      0.377104      0.553238     Biso  1.000000 C
   C          1.0     0.713293      0.877104      0.946763     Biso  1.000000 C
