#======================================================================

# CRYSTAL DATA

#----------------------------------------------------------------------

data_VESTA_phase_1


_chemical_name_common                  '# Quantum Espresso PWSCF output snapsh'
_cell_length_a                         4.08827
_cell_length_b                         12.46124
_cell_length_c                         11.68431
_cell_angle_alpha                      90.00002
_cell_angle_beta                       89.00973
_cell_angle_gamma                      90.00001
_space_group_name_H-M_alt              'P 1'
_space_group_IT_number                 1

loop_
_space_group_symop_operation_xyz
   'x, y, z'

loop_
   _atom_site_label
   _atom_site_occupancy
   _atom_site_fract_x
   _atom_site_fract_y
   _atom_site_fract_z
   _atom_site_adp_type
   _atom_site_B_iso_or_equiv
   _atom_site_type_symbol
   K          1.0     0.281163      0.074509      0.366956     Biso  1.000000 K
   K          1.0     0.218835      0.574509      0.133044     Biso  1.000000 K
   K          1.0     0.718835      0.925496      0.633044     Biso  1.000000 K
   K          1.0     0.781163      0.425496      0.866956     Biso  1.000000 K
   O          1.0     0.796726      0.947607      0.396803     Biso  1.000000 O
   O          1.0     0.703272      0.447607      0.103197     Biso  1.000000 O
   O          1.0     0.203272      0.052397      0.603197     Biso  1.000000 O
   O          1.0     0.296726      0.552397      0.896803     Biso  1.000000 O
   O          1.0     0.457926      0.730745      0.561879     Biso  1.000000 O
   O          1.0     0.042072      0.230745      0.938121     Biso  1.000000 O
   O          1.0     0.542073      0.269259      0.438121     Biso  1.000000 O
   O          1.0     0.957926      0.769259      0.061879     Biso  1.000000 O
   N          1.0     0.726291      0.861359      0.340962     Biso  1.000000 N
   N          1.0     0.773708      0.361360      0.159038     Biso  1.000000 N
   N          1.0     0.273707      0.138646      0.659038     Biso  1.000000 N
   N          1.0     0.226291      0.638645      0.840962     Biso  1.000000 N
   N          1.0     0.494600      0.857298      0.259595     Biso  1.000000 N
   N          1.0     0.005398      0.357298      0.240405     Biso  1.000000 N
   N          1.0     0.505399      0.142706      0.740405     Biso  1.000000 N
   N          1.0     0.994600      0.642706      0.759595     Biso  1.000000 N
   N          1.0     0.480842      0.756531      0.225745     Biso  1.000000 N
   N          1.0     0.019156      0.256531      0.274255     Biso  1.000000 N
   N          1.0     0.519155      0.243474      0.774255     Biso  1.000000 N
   N          1.0     0.980842      0.743473      0.725745     Biso  1.000000 N
   N          1.0     0.695647      0.695081      0.281397     Biso  1.000000 N
   N          1.0     0.804352      0.195080      0.218603     Biso  1.000000 N
   N          1.0     0.304351      0.304923      0.718603     Biso  1.000000 N
   N          1.0     0.195647      0.804923      0.781397     Biso  1.000000 N
   N          1.0     0.239457      0.794451      0.504449     Biso  1.000000 N
   N          1.0     0.260541      0.294451      0.995551     Biso  1.000000 N
   N          1.0     0.760543      0.205554      0.495551     Biso  1.000000 N
   N          1.0     0.739456      0.705554      0.004449     Biso  1.000000 N
   N          1.0     0.436818      0.623710      0.527320     Biso  1.000000 N
   N          1.0     0.063179      0.123710      0.972680     Biso  1.000000 N
   N          1.0     0.563179      0.376294      0.472680     Biso  1.000000 N
   N          1.0     0.936819      0.876295      0.027320     Biso  1.000000 N
   N          1.0     0.131079      0.537257      0.383498     Biso  1.000000 N
   N          1.0     0.368916      0.037257      0.116502     Biso  1.000000 N
   N          1.0     0.868916      0.462748      0.616502     Biso  1.000000 N
   N          1.0     0.631081      0.962747      0.883498     Biso  1.000000 N
   H          1.0     0.905921      0.537151      0.348164     Biso  1.000000 H
   H          1.0     0.594078      0.037151      0.151836     Biso  1.000000 H
   H          1.0     0.094077      0.462853      0.651836     Biso  1.000000 H
   H          1.0     0.405921      0.962853      0.848164     Biso  1.000000 H
   H          1.0     0.237953      0.465484      0.403654     Biso  1.000000 H
   H          1.0     0.262045      0.965484      0.096345     Biso  1.000000 H
   H          1.0     0.762045      0.534520      0.596345     Biso  1.000000 H
   H          1.0     0.737953      0.034520      0.903654     Biso  1.000000 H
   C          1.0     0.087745      0.729717      0.434338     Biso  1.000000 C
   C          1.0     0.412254      0.229718      0.065662     Biso  1.000000 C
   C          1.0     0.912249      0.270287      0.565661     Biso  1.000000 C
   C          1.0     0.587746      0.770287      0.934338     Biso  1.000000 C
   C          1.0     0.848274      0.760884      0.353947     Biso  1.000000 C
   C          1.0     0.651722      0.260883      0.146052     Biso  1.000000 C
   C          1.0     0.151727      0.239120      0.646054     Biso  1.000000 C
   C          1.0     0.348274      0.739120      0.853947     Biso  1.000000 C
   C          1.0     0.211840      0.622553      0.447290     Biso  1.000000 C
   C          1.0     0.288159      0.122553      0.052710     Biso  1.000000 C
   C          1.0     0.788159      0.377450      0.552709     Biso  1.000000 C
   C          1.0     0.711838      0.877451      0.947290     Biso  1.000000 C
