#======================================================================

# CRYSTAL DATA

#----------------------------------------------------------------------

data_VESTA_phase_1


_chemical_name_common                  '# Quantum Espresso PWSCF output snapsh'
_cell_length_a                         4.14413
_cell_length_b                         12.16203
_cell_length_c                         10.91514
_cell_angle_alpha                      89.99997
_cell_angle_beta                       88.69030
_cell_angle_gamma                      89.99998
_space_group_name_H-M_alt              'P 1'
_space_group_IT_number                 1

loop_
_space_group_symop_operation_xyz
   'x, y, z'

loop_
   _atom_site_label
   _atom_site_occupancy
   _atom_site_fract_x
   _atom_site_fract_y
   _atom_site_fract_z
   _atom_site_adp_type
   _atom_site_B_iso_or_equiv
   _atom_site_type_symbol
   K          1.0     0.281622      0.055839      0.392336     Biso  1.000000 K
   K          1.0     0.218380      0.555839      0.107667     Biso  1.000000 K
   K          1.0     0.718379      0.944164      0.607667     Biso  1.000000 K
   K          1.0     0.781623      0.444164      0.892336     Biso  1.000000 K
   O          1.0     0.795739      0.946906      0.347586     Biso  1.000000 O
   O          1.0     0.704266      0.446907      0.152418     Biso  1.000000 O
   O          1.0     0.204264      0.053098      0.652417     Biso  1.000000 O
   O          1.0     0.295736      0.553096      0.847585     Biso  1.000000 O
   O          1.0     0.474168      0.743425      0.548521     Biso  1.000000 O
   O          1.0     0.025834      0.243425      0.951482     Biso  1.000000 O
   O          1.0     0.525833      0.256578      0.451482     Biso  1.000000 O
   O          1.0     0.974168      0.756578      0.048520     Biso  1.000000 O
   N          1.0     0.725598      0.851261      0.304140     Biso  1.000000 N
   N          1.0     0.774402      0.351260      0.195861     Biso  1.000000 N
   N          1.0     0.274403      0.148742      0.695861     Biso  1.000000 N
   N          1.0     0.225601      0.648742      0.804140     Biso  1.000000 N
   N          1.0     0.486720      0.833898      0.224482     Biso  1.000000 N
   N          1.0     0.013280      0.333898      0.275520     Biso  1.000000 N
   N          1.0     0.513283      0.166105      0.775521     Biso  1.000000 N
   N          1.0     0.986722      0.666105      0.724482     Biso  1.000000 N
   N          1.0     0.480711      0.727297      0.205307     Biso  1.000000 N
   N          1.0     0.019290      0.227298      0.294695     Biso  1.000000 N
   N          1.0     0.519290      0.272706      0.794695     Biso  1.000000 N
   N          1.0     0.980711      0.772705      0.705307     Biso  1.000000 N
   N          1.0     0.706015      0.675080      0.268562     Biso  1.000000 N
   N          1.0     0.793988      0.175080      0.231441     Biso  1.000000 N
   N          1.0     0.293987      0.324923      0.731440     Biso  1.000000 N
   N          1.0     0.206014      0.824923      0.768562     Biso  1.000000 N
   N          1.0     0.254823      0.804083      0.482681     Biso  1.000000 N
   N          1.0     0.245181      0.304083      1.017322     Biso  1.000000 N
   N          1.0     0.745179      0.195920      0.517321     Biso  1.000000 N
   N          1.0     0.754823      0.695920     -0.017319     Biso  1.000000 N
   N          1.0     0.450014      0.631213      0.523055     Biso  1.000000 N
   N          1.0     0.049989      0.131213      0.976947     Biso  1.000000 N
   N          1.0     0.549988      0.368790      0.476947     Biso  1.000000 N
   N          1.0     0.950012      0.868790      0.023055     Biso  1.000000 N
   N          1.0     0.137492      0.533003      0.380289     Biso  1.000000 N
   N          1.0     0.362510      0.033003      0.119714     Biso  1.000000 N
   N          1.0     0.862509      0.467000      0.619714     Biso  1.000000 N
   N          1.0     0.637492      0.967000      0.880288     Biso  1.000000 N
   H          1.0     0.922600      0.534192      0.336750     Biso  1.000000 H
   H          1.0     0.577403      0.034193      0.163252     Biso  1.000000 H
   H          1.0     0.077403      0.465811      0.663251     Biso  1.000000 H
   H          1.0     0.422599      0.965810      0.836751     Biso  1.000000 H
   H          1.0     0.244992      0.460044      0.402439     Biso  1.000000 H
   H          1.0     0.255007      0.960044      0.097563     Biso  1.000000 H
   H          1.0     0.755009      0.539960      0.597564     Biso  1.000000 H
   H          1.0     0.744994      0.039960      0.902439     Biso  1.000000 H
   C          1.0     0.099472      0.731664      0.417840     Biso  1.000000 C
   C          1.0     0.400531      0.231663      0.082163     Biso  1.000000 C
   C          1.0     0.900531      0.268339      0.582163     Biso  1.000000 C
   C          1.0     0.599471      0.768340      0.917840     Biso  1.000000 C
   C          1.0     0.857940      0.752945      0.331337     Biso  1.000000 C
   C          1.0     0.642062      0.252945      0.168666     Biso  1.000000 C
   C          1.0     0.142062      0.247058      0.668666     Biso  1.000000 C
   C          1.0     0.357941      0.747058      0.831337     Biso  1.000000 C
   C          1.0     0.222469      0.623377      0.440499     Biso  1.000000 C
   C          1.0     0.277534      0.123377      0.059503     Biso  1.000000 C
   C          1.0     0.777533      0.376627      0.559503     Biso  1.000000 C
   C          1.0     0.722469      0.876627      0.940500     Biso  1.000000 C
