#======================================================================

# CRYSTAL DATA

#----------------------------------------------------------------------

data_VESTA_phase_1


_chemical_name_common                  '# Quantum Espresso PWSCF output snapsh'
_cell_length_a                         4.50867
_cell_length_b                         12.35261
_cell_length_c                         12.55999
_cell_angle_alpha                      90
_cell_angle_beta                       91.61760
_cell_angle_gamma                      90
_space_group_name_H-M_alt              'P 1'
_space_group_IT_number                 1

loop_
_space_group_symop_operation_xyz
   'x, y, z'

loop_
   _atom_site_label
   _atom_site_occupancy
   _atom_site_fract_x
   _atom_site_fract_y
   _atom_site_fract_z
   _atom_site_adp_type
   _atom_site_B_iso_or_equiv
   _atom_site_type_symbol
   K          1.0     0.251998      0.066810      0.372640     Biso  1.000000 K
   K          1.0     0.248003      0.566808      0.127359     Biso  1.000000 K
   K          1.0     0.748003      0.933187      0.627357     Biso  1.000000 K
   K          1.0     0.751998      0.433189      0.872638     Biso  1.000000 K
   O          1.0     0.763505      0.943986      0.399593     Biso  1.000000 O
   O          1.0     0.736495      0.443988      0.100405     Biso  1.000000 O
   O          1.0     0.236495      0.056011      0.600404     Biso  1.000000 O
   O          1.0     0.263505      0.556009      0.899592     Biso  1.000000 O
   O          1.0     0.434583      0.741535      0.551690     Biso  1.000000 O
   O          1.0     0.065418      0.241537      0.948305     Biso  1.000000 O
   O          1.0     0.565418      0.258461      0.448306     Biso  1.000000 O
   O          1.0     0.934583      0.758460      0.051692     Biso  1.000000 O
   N          1.0     0.719990      0.856025      0.344653     Biso  1.000000 N
   N          1.0     0.780011      0.356027      0.155345     Biso  1.000000 N
   N          1.0     0.280011      0.143972      0.655344     Biso  1.000000 N
   N          1.0     0.219990      0.643970      0.844652     Biso  1.000000 N
   N          1.0     0.508588      0.847604      0.265747     Biso  1.000000 N
   N          1.0    -0.008588      0.347605      0.234252     Biso  1.000000 N
   N          1.0     0.491412      0.152393      0.734250     Biso  1.000000 N
   N          1.0     1.008588      0.652391      0.765745     Biso  1.000000 N
   N          1.0     0.522325      0.746992      0.229810     Biso  1.000000 N
   N          1.0     0.977676      0.246994      0.270189     Biso  1.000000 N
   N          1.0     0.477676      0.253004      0.770187     Biso  1.000000 N
   N          1.0     0.022324      0.753003      0.729808     Biso  1.000000 N
   N          1.0     0.735338      0.690081      0.281855     Biso  1.000000 N
   N          1.0     0.764663      0.190082      0.218143     Biso  1.000000 N
   N          1.0     0.264663      0.309916      0.718142     Biso  1.000000 N
   N          1.0     0.235337      0.809914      0.781853     Biso  1.000000 N
   N          1.0     0.217778      0.799863      0.497323     Biso  1.000000 N
   N          1.0     0.282223      0.299865      0.002675     Biso  1.000000 N
   N          1.0     0.782223      0.200134      0.502673     Biso  1.000000 N
   N          1.0     0.717778      0.700132      0.997322     Biso  1.000000 N
   N          1.0     0.441503      0.633572      0.516997     Biso  1.000000 N
   N          1.0     0.058497      0.133573      0.982998     Biso  1.000000 N
   N          1.0     0.558498      0.366425      0.483000     Biso  1.000000 N
   N          1.0     0.941503      0.866423      0.016999     Biso  1.000000 N
   N          1.0     0.174723      0.537300      0.381744     Biso  1.000000 N
   N          1.0     0.325277      0.037302      0.118255     Biso  1.000000 N
   N          1.0     0.825278      0.462697      0.618253     Biso  1.000000 N
   N          1.0     0.674723      0.962695      0.881742     Biso  1.000000 N
   H          1.0     0.974724      0.533608      0.342498     Biso  1.000000 H
   H          1.0     0.525277      0.033610      0.157501     Biso  1.000000 H
   H          1.0     0.025277      0.466388      0.657499     Biso  1.000000 H
   H          1.0     0.474724      0.966387      0.842496     Biso  1.000000 H
   H          1.0     0.274655      0.466352      0.405609     Biso  1.000000 H
   H          1.0     0.225345      0.966350      0.094389     Biso  1.000000 H
   H          1.0     0.725345      0.533645      0.594388     Biso  1.000000 H
   H          1.0     0.774655      0.033647      0.905608     Biso  1.000000 H
   C          1.0     0.092575      0.731469      0.429153     Biso  1.000000 C
   C          1.0     0.407425      0.231471      0.070845     Biso  1.000000 C
   C          1.0     0.907425      0.268528      0.570844     Biso  1.000000 C
   C          1.0     0.592575      0.768526      0.929152     Biso  1.000000 C
   C          1.0     0.858892      0.758189      0.354040     Biso  1.000000 C
   C          1.0     0.641108      0.258190      0.145958     Biso  1.000000 C
   C          1.0     0.141108      0.241808      0.645957     Biso  1.000000 C
   C          1.0     0.358892      0.741807      0.854038     Biso  1.000000 C
   C          1.0     0.232545      0.626544      0.440930     Biso  1.000000 C
   C          1.0     0.267456      0.126546      0.059068     Biso  1.000000 C
   C          1.0     0.767456      0.373453      0.559067     Biso  1.000000 C
   C          1.0     0.732545      0.873451      0.940929     Biso  1.000000 C
