#======================================================================

# CRYSTAL DATA

#----------------------------------------------------------------------

data_VESTA_phase_1


_chemical_name_common                  '# Quantum Espresso PWSCF output snapsh'
_cell_length_a                         14.63032
_cell_length_b                         6.38961
_cell_length_c                         8.51302
_cell_angle_alpha                      90.00004
_cell_angle_beta                       121.88551
_cell_angle_gamma                      89.99998
_space_group_name_H-M_alt              'P 1'
_space_group_IT_number                 1

loop_
_space_group_symop_operation_xyz
   'x, y, z'

loop_
   _atom_site_label
   _atom_site_occupancy
   _atom_site_fract_x
   _atom_site_fract_y
   _atom_site_fract_z
   _atom_site_adp_type
   _atom_site_B_iso_or_equiv
   _atom_site_type_symbol
   C          1.0     0.258657      0.262501      0.090259     Biso  1.000000 C
   C          1.0     0.741340      0.262501      0.409733     Biso  1.000000 C
   C          1.0     0.758652      0.762504      0.090264     Biso  1.000000 C
   C          1.0     0.241342      0.762505      0.409741     Biso  1.000000 C
   C          1.0     0.741338      0.737499      0.909739     Biso  1.000000 C
   C          1.0     0.258656      0.737499      0.590266     Biso  1.000000 C
   C          1.0     0.241343      0.237496      0.909735     Biso  1.000000 C
   C          1.0     0.758654      0.237496      0.590258     Biso  1.000000 C
   Pb         1.0    -0.000001      0.096801      0.249998     Biso  1.000000 Pb
   Pb         1.0     0.499998      0.596802      0.249999     Biso  1.000000 Pb
   Pb         1.0    -0.000001      0.903199      0.749999     Biso  1.000000 Pb
   Pb         1.0     0.499998      0.403199      0.749998     Biso  1.000000 Pb
   O          1.0     0.076949      0.218911      0.025375     Biso  1.000000 O
   O          1.0     0.923048      0.218911      0.474619     Biso  1.000000 O
   O          1.0     0.576944      0.718912      0.025380     Biso  1.000000 O
   O          1.0     0.423049      0.718912      0.474623     Biso  1.000000 O
   O          1.0     0.923047      0.781090      0.974622     Biso  1.000000 O
   O          1.0     0.076947      0.781090      0.525380     Biso  1.000000 O
   O          1.0     0.423051      0.281088      0.974618     Biso  1.000000 O
   O          1.0     0.576946      0.281089      0.525376     Biso  1.000000 O
   O          1.0    -0.000001      0.481037      0.250000     Biso  1.000000 O
   O          1.0     0.499998      0.981037      0.249999     Biso  1.000000 O
   O          1.0    -0.000001      0.518963      0.749999     Biso  1.000000 O
   O          1.0     0.499997      0.018963      0.750000     Biso  1.000000 O
   H          1.0     0.977828      0.575803      0.143927     Biso  1.000000 H
   H          1.0     0.022166      0.575802      0.356071     Biso  1.000000 H
   H          1.0     0.477831      0.075801      0.143928     Biso  1.000000 H
   H          1.0     0.522165      0.075803      0.356069     Biso  1.000000 H
   H          1.0     0.022168      0.424197      0.856070     Biso  1.000000 H
   H          1.0     0.977829      0.424198      0.643927     Biso  1.000000 H
   H          1.0     0.522164      0.924199      0.856071     Biso  1.000000 H
   H          1.0     0.477830      0.924198      0.643928     Biso  1.000000 H
   N          1.0     0.181244      0.247573      0.132925     Biso  1.000000 N
   N          1.0     0.818753      0.247574      0.367068     Biso  1.000000 N
   N          1.0     0.681241      0.747576      0.132931     Biso  1.000000 N
   N          1.0     0.318753      0.747575      0.367073     Biso  1.000000 N
   N          1.0     0.818751      0.752427      0.867073     Biso  1.000000 N
   N          1.0     0.181242      0.752427      0.632930     Biso  1.000000 N
   N          1.0     0.318754      0.252425      0.867067     Biso  1.000000 N
   N          1.0     0.681242      0.252425      0.632924     Biso  1.000000 N
   N          1.0     0.229010      0.266614      0.318040     Biso  1.000000 N
   N          1.0     0.770987      0.266616      0.181954     Biso  1.000000 N
   N          1.0     0.729007      0.766614      0.318045     Biso  1.000000 N
   N          1.0     0.270987      0.766613      0.181959     Biso  1.000000 N
   N          1.0     0.770985      0.733386      0.681959     Biso  1.000000 N
   N          1.0     0.229008      0.733385      0.818044     Biso  1.000000 N
   N          1.0     0.270988      0.233386      0.681953     Biso  1.000000 N
   N          1.0     0.729009      0.233387      0.818039     Biso  1.000000 N
   N          1.0     0.332174      0.297592      0.383858     Biso  1.000000 N
   N          1.0     0.667823      0.297594      0.116135     Biso  1.000000 N
   N          1.0     0.832171      0.797591      0.383863     Biso  1.000000 N
   N          1.0     0.167823      0.797591      0.116142     Biso  1.000000 N
   N          1.0     0.667821      0.702408      0.616140     Biso  1.000000 N
   N          1.0     0.332172      0.702407      0.883864     Biso  1.000000 N
   N          1.0     0.167824      0.202409      0.616136     Biso  1.000000 N
   N          1.0     0.832173      0.202410      0.883857     Biso  1.000000 N
   N          1.0     0.352742      0.299078      0.247548     Biso  1.000000 N
   N          1.0     0.647255      0.299077      0.252445     Biso  1.000000 N
   N          1.0     0.852737      0.799079      0.247551     Biso  1.000000 N
   N          1.0     0.147256      0.799079      0.252453     Biso  1.000000 N
   N          1.0     0.647253      0.700922      0.752450     Biso  1.000000 N
   N          1.0     0.352740      0.700922      0.747554     Biso  1.000000 N
   N          1.0     0.147257      0.200921      0.752447     Biso  1.000000 N
   N          1.0     0.852739      0.200921      0.747545     Biso  1.000000 N
