#======================================================================

# CRYSTAL DATA

#----------------------------------------------------------------------

data_VESTA_phase_1


_chemical_name_common                  '# Quantum Espresso PWSCF output snapsh'
_cell_length_a                         14.59739
_cell_length_b                         6.34519
_cell_length_c                         8.49322
_cell_angle_alpha                      90
_cell_angle_beta                       121.82716
_cell_angle_gamma                      89.99998
_space_group_name_H-M_alt              'P 1'
_space_group_IT_number                 1

loop_
_space_group_symop_operation_xyz
   'x, y, z'

loop_
   _atom_site_label
   _atom_site_occupancy
   _atom_site_fract_x
   _atom_site_fract_y
   _atom_site_fract_z
   _atom_site_adp_type
   _atom_site_B_iso_or_equiv
   _atom_site_type_symbol
   C          1.0     0.258687      0.262419      0.090438     Biso  1.000000 C
   C          1.0     0.741317      0.262419      0.409562     Biso  1.000000 C
   C          1.0     0.758683      0.762422      0.090441     Biso  1.000000 C
   C          1.0     0.241320      0.762423      0.409570     Biso  1.000000 C
   C          1.0     0.741315      0.737581      0.909566     Biso  1.000000 C
   C          1.0     0.258686      0.737581      0.590442     Biso  1.000000 C
   C          1.0     0.241320      0.237578      0.909563     Biso  1.000000 C
   C          1.0     0.758684      0.237578      0.590434     Biso  1.000000 C
   Pb         1.0     1.000003      0.096081      0.250001     Biso  1.000000 Pb
   Pb         1.0     0.500001      0.596081      0.250001     Biso  1.000000 Pb
   Pb         1.0     1.000003      0.903919      0.750001     Biso  1.000000 Pb
   Pb         1.0     0.500002      0.403920      0.750001     Biso  1.000000 Pb
   O          1.0     0.076648      0.220081      0.025643     Biso  1.000000 O
   O          1.0     0.923357      0.220081      0.474357     Biso  1.000000 O
   O          1.0     0.576643      0.720081      0.025646     Biso  1.000000 O
   O          1.0     0.423358      0.720082      0.474361     Biso  1.000000 O
   O          1.0     0.923356      0.779920      0.974359     Biso  1.000000 O
   O          1.0     0.076646      0.779920      0.525647     Biso  1.000000 O
   O          1.0     0.423359      0.279919      0.974357     Biso  1.000000 O
   O          1.0     0.576644      0.279919      0.525643     Biso  1.000000 O
   O          1.0     1.000003      0.480920      0.250003     Biso  1.000000 O
   O          1.0     0.500001      0.980920      0.250001     Biso  1.000000 O
   O          1.0     1.000004      0.519080      0.750001     Biso  1.000000 O
   O          1.0     0.500001      0.019080      0.750004     Biso  1.000000 O
   H          1.0     0.977724      0.576190      0.143563     Biso  1.000000 H
   H          1.0     0.022277      0.576188      0.356441     Biso  1.000000 H
   H          1.0     0.477727      0.076188      0.143563     Biso  1.000000 H
   H          1.0     0.522276      0.076190      0.356439     Biso  1.000000 H
   H          1.0     0.022279      0.423810      0.856440     Biso  1.000000 H
   H          1.0     0.977725      0.423812      0.643562     Biso  1.000000 H
   H          1.0     0.522276      0.923812      0.856441     Biso  1.000000 H
   H          1.0     0.477726      0.923812      0.643564     Biso  1.000000 H
   N          1.0     0.181116      0.248321      0.133257     Biso  1.000000 N
   N          1.0     0.818886      0.248322      0.366741     Biso  1.000000 N
   N          1.0     0.681115      0.748323      0.133262     Biso  1.000000 N
   N          1.0     0.318887      0.748322      0.366746     Biso  1.000000 N
   N          1.0     0.818886      0.751679      0.866746     Biso  1.000000 N
   N          1.0     0.181117      0.751679      0.633263     Biso  1.000000 N
   N          1.0     0.318887      0.251678      0.866741     Biso  1.000000 N
   N          1.0     0.681115      0.251678      0.633256     Biso  1.000000 N
   N          1.0     0.228945      0.266806      0.318681     Biso  1.000000 N
   N          1.0     0.771059      0.266807      0.181319     Biso  1.000000 N
   N          1.0     0.728942      0.766805      0.318684     Biso  1.000000 N
   N          1.0     0.271059      0.766804      0.181324     Biso  1.000000 N
   N          1.0     0.771057      0.733194      0.681323     Biso  1.000000 N
   N          1.0     0.228943      0.733194      0.818685     Biso  1.000000 N
   N          1.0     0.271060      0.233195      0.681319     Biso  1.000000 N
   N          1.0     0.728944      0.233196      0.818680     Biso  1.000000 N
   N          1.0     0.332375      0.296643      0.384604     Biso  1.000000 N
   N          1.0     0.667629      0.296644      0.115395     Biso  1.000000 N
   N          1.0     0.832372      0.796643      0.384607     Biso  1.000000 N
   N          1.0     0.167630      0.796642      0.115402     Biso  1.000000 N
   N          1.0     0.667628      0.703357      0.615400     Biso  1.000000 N
   N          1.0     0.332373      0.703357      0.884609     Biso  1.000000 N
   N          1.0     0.167630      0.203357      0.615398     Biso  1.000000 N
   N          1.0     0.832374      0.203359      0.884602     Biso  1.000000 N
   N          1.0     0.352983      0.297981      0.247995     Biso  1.000000 N
   N          1.0     0.647020      0.297980      0.252004     Biso  1.000000 N
   N          1.0     0.852979      0.797982      0.247996     Biso  1.000000 N
   N          1.0     0.147022      0.797982      0.252012     Biso  1.000000 N
   N          1.0     0.647019      0.702019      0.752008     Biso  1.000000 N
   N          1.0     0.352982      0.702019      0.748001     Biso  1.000000 N
   N          1.0     0.147022      0.202018      0.752007     Biso  1.000000 N
   N          1.0     0.852981      0.202018      0.747992     Biso  1.000000 N
