#======================================================================

# CRYSTAL DATA

#----------------------------------------------------------------------

data_VESTA_phase_1


_chemical_name_common                  '# Quantum Espresso PWSCF output snapsh'
_cell_length_a                         14.09293
_cell_length_b                         5.84128
_cell_length_c                         8.23879
_cell_angle_alpha                      89.99996
_cell_angle_beta                       121.21613
_cell_angle_gamma                      90.00002
_space_group_name_H-M_alt              'P 1'
_space_group_IT_number                 1

loop_
_space_group_symop_operation_xyz
   'x, y, z'

loop_
   _atom_site_label
   _atom_site_occupancy
   _atom_site_fract_x
   _atom_site_fract_y
   _atom_site_fract_z
   _atom_site_adp_type
   _atom_site_B_iso_or_equiv
   _atom_site_type_symbol
   C          1.0     0.258791      0.260780      0.092468     Biso  1.000000 C
   C          1.0     0.741210      0.260783      0.407542     Biso  1.000000 C
   C          1.0     0.758788      0.760780      0.092468     Biso  1.000000 C
   C          1.0     0.241212      0.760787      0.407537     Biso  1.000000 C
   C          1.0     0.741210      0.739215      0.907540     Biso  1.000000 C
   C          1.0     0.258790      0.739222      0.592467     Biso  1.000000 C
   C          1.0     0.241211      0.239214      0.907536     Biso  1.000000 C
   C          1.0     0.758788      0.239220      0.592465     Biso  1.000000 C
   Pb         1.0     0.999999      0.085951      0.250003     Biso  1.000000 Pb
   Pb         1.0     0.499999      0.585952      0.250003     Biso  1.000000 Pb
   Pb         1.0     0.999999      0.914049      0.750003     Biso  1.000000 Pb
   Pb         1.0     0.499999      0.414049      0.750003     Biso  1.000000 Pb
   O          1.0     0.071708      0.233149      0.028691     Biso  1.000000 O
   O          1.0     0.928293      0.233151      0.471318     Biso  1.000000 O
   O          1.0     0.571705      0.733150      0.028691     Biso  1.000000 O
   O          1.0     0.428295      0.733153      0.471317     Biso  1.000000 O
   O          1.0     0.928293      0.766850      0.971318     Biso  1.000000 O
   O          1.0     0.071707      0.766851      0.528690     Biso  1.000000 O
   O          1.0     0.428294      0.266849      0.971316     Biso  1.000000 O
   O          1.0     0.571706      0.266849      0.528692     Biso  1.000000 O
   O          1.0     0.000006      0.478685      0.250007     Biso  1.000000 O
   O          1.0     0.500004      0.978685      0.250006     Biso  1.000000 O
   O          1.0     0.000006      0.521316      0.750007     Biso  1.000000 O
   O          1.0     0.500007      0.021316      0.750007     Biso  1.000000 O
   H          1.0     0.977796      0.578889      0.139006     Biso  1.000000 H
   H          1.0     0.022206      0.578889      0.361003     Biso  1.000000 H
   H          1.0     0.477797      0.078888      0.139007     Biso  1.000000 H
   H          1.0     0.522205      0.078889      0.361002     Biso  1.000000 H
   H          1.0     0.022206      0.421111      0.861003     Biso  1.000000 H
   H          1.0     0.977796      0.421112      0.639006     Biso  1.000000 H
   H          1.0     0.522205      0.921112      0.861002     Biso  1.000000 H
   H          1.0     0.477797      0.921113      0.639006     Biso  1.000000 H
   N          1.0     0.178901      0.256685      0.137165     Biso  1.000000 N
   N          1.0     0.821098      0.256685      0.362840     Biso  1.000000 N
   N          1.0     0.678903      0.756686      0.137169     Biso  1.000000 N
   N          1.0     0.321098      0.756688      0.362838     Biso  1.000000 N
   N          1.0     0.821097      0.743315      0.862840     Biso  1.000000 N
   N          1.0     0.178904      0.743315      0.637167     Biso  1.000000 N
   N          1.0     0.321099      0.243314      0.862839     Biso  1.000000 N
   N          1.0     0.678901      0.243314      0.637169     Biso  1.000000 N
   N          1.0     0.227450      0.267576      0.326376     Biso  1.000000 N
   N          1.0     0.772550      0.267573      0.173631     Biso  1.000000 N
   N          1.0     0.727449      0.767574      0.326378     Biso  1.000000 N
   N          1.0     0.272552      0.767573      0.173629     Biso  1.000000 N
   N          1.0     0.772551      0.732427      0.673631     Biso  1.000000 N
   N          1.0     0.227450      0.732425      0.826376     Biso  1.000000 N
   N          1.0     0.272551      0.232428      0.673629     Biso  1.000000 N
   N          1.0     0.727449      0.232425      0.826378     Biso  1.000000 N
   N          1.0     0.334691      0.283149      0.393938     Biso  1.000000 N
   N          1.0     0.665310      0.283150      0.106068     Biso  1.000000 N
   N          1.0     0.834690      0.783146      0.393940     Biso  1.000000 N
   N          1.0     0.165311      0.783150      0.106066     Biso  1.000000 N
   N          1.0     0.665310      0.716849      0.606068     Biso  1.000000 N
   N          1.0     0.334691      0.716853      0.893938     Biso  1.000000 N
   N          1.0     0.165311      0.216851      0.606067     Biso  1.000000 N
   N          1.0     0.834690      0.216854      0.893940     Biso  1.000000 N
   N          1.0     0.355883      0.283081      0.253637     Biso  1.000000 N
   N          1.0     0.644116      0.283087      0.246367     Biso  1.000000 N
   N          1.0     0.855883      0.783080      0.253639     Biso  1.000000 N
   N          1.0     0.144118      0.783090      0.246367     Biso  1.000000 N
   N          1.0     0.644116      0.716911      0.746368     Biso  1.000000 N
   N          1.0     0.355884      0.716922      0.753637     Biso  1.000000 N
   N          1.0     0.144118      0.216912      0.746367     Biso  1.000000 N
   N          1.0     0.855883      0.216920      0.753640     Biso  1.000000 N
