#======================================================================

# CRYSTAL DATA

#----------------------------------------------------------------------

data_VESTA_phase_1


_chemical_name_common                  '# Quantum Espresso PWSCF output snapsh'
_cell_length_a                         14.05247
_cell_length_b                         5.81040
_cell_length_c                         8.22153
_cell_angle_alpha                      90
_cell_angle_beta                       121.19022
_cell_angle_gamma                      89.99998
_space_group_name_H-M_alt              'P 1'
_space_group_IT_number                 1

loop_
_space_group_symop_operation_xyz
   'x, y, z'

loop_
   _atom_site_label
   _atom_site_occupancy
   _atom_site_fract_x
   _atom_site_fract_y
   _atom_site_fract_z
   _atom_site_adp_type
   _atom_site_B_iso_or_equiv
   _atom_site_type_symbol
   C          1.0     0.258795      0.260623      0.092596     Biso  1.000000 C
   C          1.0     0.741206      0.260626      0.407407     Biso  1.000000 C
   C          1.0     0.758793      0.760624      0.092596     Biso  1.000000 C
   C          1.0     0.241208      0.760629      0.407404     Biso  1.000000 C
   C          1.0     0.741207      0.739374      0.907412     Biso  1.000000 C
   C          1.0     0.258795      0.739378      0.592599     Biso  1.000000 C
   C          1.0     0.241208      0.239373      0.907407     Biso  1.000000 C
   C          1.0     0.758794      0.239375      0.592601     Biso  1.000000 C
   Pb         1.0     1.000000      0.085288      0.250002     Biso  1.000000 Pb
   Pb         1.0     0.500000      0.585288      0.250003     Biso  1.000000 Pb
   Pb         1.0     1.000000      0.914712      0.750002     Biso  1.000000 Pb
   Pb         1.0     0.500000      0.414712      0.750002     Biso  1.000000 Pb
   O          1.0     0.071294      0.233958      0.028845     Biso  1.000000 O
   O          1.0     0.928707      0.233959      0.471161     Biso  1.000000 O
   O          1.0     0.571293      0.733959      0.028846     Biso  1.000000 O
   O          1.0     0.428709      0.733961      0.471160     Biso  1.000000 O
   O          1.0     0.928707      0.766042      0.971161     Biso  1.000000 O
   O          1.0     0.071294      0.766043      0.528845     Biso  1.000000 O
   O          1.0     0.428708      0.266041      0.971160     Biso  1.000000 O
   O          1.0     0.571293      0.266041      0.528847     Biso  1.000000 O
   O          1.0     0.000004      0.478556      0.250005     Biso  1.000000 O
   O          1.0     0.500003      0.978556      0.250004     Biso  1.000000 O
   O          1.0     0.000003      0.521445      0.750004     Biso  1.000000 O
   O          1.0     0.500005      0.021445      0.750005     Biso  1.000000 O
   H          1.0     0.977878      0.579001      0.138695     Biso  1.000000 H
   H          1.0     0.022124      0.579001      0.361311     Biso  1.000000 H
   H          1.0     0.477879      0.079001      0.138696     Biso  1.000000 H
   H          1.0     0.522123      0.079001      0.361311     Biso  1.000000 H
   H          1.0     0.022124      0.420999      0.861312     Biso  1.000000 H
   H          1.0     0.977878      0.420999      0.638696     Biso  1.000000 H
   H          1.0     0.522124      0.920999      0.861311     Biso  1.000000 H
   H          1.0     0.477879      0.921000      0.638696     Biso  1.000000 H
   N          1.0     0.178722      0.257168      0.137407     Biso  1.000000 N
   N          1.0     0.821278      0.257168      0.362599     Biso  1.000000 N
   N          1.0     0.678721      0.757168      0.137411     Biso  1.000000 N
   N          1.0     0.321279      0.757169      0.362596     Biso  1.000000 N
   N          1.0     0.821279      0.742833      0.862598     Biso  1.000000 N
   N          1.0     0.178724      0.742833      0.637407     Biso  1.000000 N
   N          1.0     0.321280      0.242832      0.862596     Biso  1.000000 N
   N          1.0     0.678721      0.242831      0.637409     Biso  1.000000 N
   N          1.0     0.227321      0.267557      0.326867     Biso  1.000000 N
   N          1.0     0.772680      0.267554      0.173139     Biso  1.000000 N
   N          1.0     0.727320      0.767555      0.326870     Biso  1.000000 N
   N          1.0     0.272682      0.767554      0.173136     Biso  1.000000 N
   N          1.0     0.772680      0.732446      0.673139     Biso  1.000000 N
   N          1.0     0.227321      0.732444      0.826867     Biso  1.000000 N
   N          1.0     0.272681      0.232447      0.673136     Biso  1.000000 N
   N          1.0     0.727320      0.232445      0.826870     Biso  1.000000 N
   N          1.0     0.334865      0.282215      0.394576     Biso  1.000000 N
   N          1.0     0.665136      0.282215      0.105430     Biso  1.000000 N
   N          1.0     0.834864      0.782213      0.394578     Biso  1.000000 N
   N          1.0     0.165138      0.782215      0.105428     Biso  1.000000 N
   N          1.0     0.665137      0.717784      0.605430     Biso  1.000000 N
   N          1.0     0.334865      0.717787      0.894575     Biso  1.000000 N
   N          1.0     0.165137      0.217786      0.605428     Biso  1.000000 N
   N          1.0     0.834864      0.217787      0.894577     Biso  1.000000 N
   N          1.0     0.356103      0.282053      0.254040     Biso  1.000000 N
   N          1.0     0.643898      0.282056      0.245965     Biso  1.000000 N
   N          1.0     0.856102      0.782052      0.254043     Biso  1.000000 N
   N          1.0     0.143900      0.782058      0.245964     Biso  1.000000 N
   N          1.0     0.643898      0.717943      0.745964     Biso  1.000000 N
   N          1.0     0.356103      0.717950      0.754039     Biso  1.000000 N
   N          1.0     0.143899      0.217944      0.745963     Biso  1.000000 N
   N          1.0     0.856102      0.217948      0.754041     Biso  1.000000 N
