#======================================================================

# CRYSTAL DATA

#----------------------------------------------------------------------

data_VESTA_phase_1


_chemical_name_common                  '# Quantum Espresso PWSCF output snapsh'
_cell_length_a                         14.66755
_cell_length_b                         6.43659
_cell_length_c                         8.53453
_cell_angle_alpha                      90.00005
_cell_angle_beta                       121.95612
_cell_angle_gamma                      89.99998
_space_group_name_H-M_alt              'P 1'
_space_group_IT_number                 1

loop_
_space_group_symop_operation_xyz
   'x, y, z'

loop_
   _atom_site_label
   _atom_site_occupancy
   _atom_site_fract_x
   _atom_site_fract_y
   _atom_site_fract_z
   _atom_site_adp_type
   _atom_site_B_iso_or_equiv
   _atom_site_type_symbol
   C          1.0     0.258668      0.262547      0.090103     Biso  1.000000 C
   C          1.0     0.741334      0.262547      0.409892     Biso  1.000000 C
   C          1.0     0.758663      0.762550      0.090105     Biso  1.000000 C
   C          1.0     0.241335      0.762551      0.409900     Biso  1.000000 C
   C          1.0     0.741332      0.737453      0.909896     Biso  1.000000 C
   C          1.0     0.258666      0.737453      0.590108     Biso  1.000000 C
   C          1.0     0.241337      0.237450      0.909895     Biso  1.000000 C
   C          1.0     0.758665      0.237450      0.590100     Biso  1.000000 C
   Pb         1.0     0.000000      0.097330      0.249999     Biso  1.000000 Pb
   Pb         1.0     0.500000      0.597331      0.250000     Biso  1.000000 Pb
   Pb         1.0    -0.000000      0.902670      0.750000     Biso  1.000000 Pb
   Pb         1.0     0.500000      0.402670      0.749999     Biso  1.000000 Pb
   O          1.0     0.077355      0.217754      0.025199     Biso  1.000000 O
   O          1.0     0.922647      0.217754      0.474797     Biso  1.000000 O
   O          1.0     0.577351      0.717755      0.025203     Biso  1.000000 O
   O          1.0     0.422647      0.717755      0.474801     Biso  1.000000 O
   O          1.0     0.922645      0.782247      0.974800     Biso  1.000000 O
   O          1.0     0.077353      0.782247      0.525203     Biso  1.000000 O
   O          1.0     0.422649      0.282245      0.974796     Biso  1.000000 O
   O          1.0     0.577353      0.282246      0.525199     Biso  1.000000 O
   O          1.0     0.000000      0.481013      0.250000     Biso  1.000000 O
   O          1.0     0.500000      0.981013      0.250000     Biso  1.000000 O
   O          1.0    -0.000000      0.518987      0.750000     Biso  1.000000 O
   O          1.0     0.500000      0.018987      0.750000     Biso  1.000000 O
   H          1.0     0.977857      0.575227      0.144274     Biso  1.000000 H
   H          1.0     0.022141      0.575226      0.355725     Biso  1.000000 H
   H          1.0     0.477860      0.075226      0.144275     Biso  1.000000 H
   H          1.0     0.522141      0.075228      0.355724     Biso  1.000000 H
   H          1.0     0.022143      0.424773      0.855725     Biso  1.000000 H
   H          1.0     0.977858      0.424774      0.644274     Biso  1.000000 H
   H          1.0     0.522140      0.924774      0.855725     Biso  1.000000 H
   H          1.0     0.477859      0.924773      0.644275     Biso  1.000000 H
   N          1.0     0.181463      0.246771      0.132661     Biso  1.000000 N
   N          1.0     0.818539      0.246772      0.367334     Biso  1.000000 N
   N          1.0     0.681459      0.746773      0.132665     Biso  1.000000 N
   N          1.0     0.318539      0.746772      0.367340     Biso  1.000000 N
   N          1.0     0.818537      0.753229      0.867339     Biso  1.000000 N
   N          1.0     0.181461      0.753229      0.632665     Biso  1.000000 N
   N          1.0     0.318541      0.253227      0.867335     Biso  1.000000 N
   N          1.0     0.681461      0.253228      0.632659     Biso  1.000000 N
   N          1.0     0.229200      0.266361      0.317458     Biso  1.000000 N
   N          1.0     0.770802      0.266363      0.182537     Biso  1.000000 N
   N          1.0     0.729197      0.766361      0.317462     Biso  1.000000 N
   N          1.0     0.270801      0.766360      0.182543     Biso  1.000000 N
   N          1.0     0.770800      0.733639      0.682542     Biso  1.000000 N
   N          1.0     0.229198      0.733638      0.817462     Biso  1.000000 N
   N          1.0     0.270803      0.233639      0.682538     Biso  1.000000 N
   N          1.0     0.729199      0.233640      0.817457     Biso  1.000000 N
   N          1.0     0.332066      0.298501      0.383120     Biso  1.000000 N
   N          1.0     0.667936      0.298502      0.116875     Biso  1.000000 N
   N          1.0     0.832063      0.798500      0.383123     Biso  1.000000 N
   N          1.0     0.167935      0.798500      0.116882     Biso  1.000000 N
   N          1.0     0.667934      0.701499      0.616879     Biso  1.000000 N
   N          1.0     0.332064      0.701499      0.883125     Biso  1.000000 N
   N          1.0     0.167937      0.201500      0.616877     Biso  1.000000 N
   N          1.0     0.832065      0.201501      0.883118     Biso  1.000000 N
   N          1.0     0.352544      0.300146      0.247086     Biso  1.000000 N
   N          1.0     0.647458      0.300146      0.252909     Biso  1.000000 N
   N          1.0     0.852539      0.800147      0.247088     Biso  1.000000 N
   N          1.0     0.147459      0.800148      0.252917     Biso  1.000000 N
   N          1.0     0.647456      0.699854      0.752913     Biso  1.000000 N
   N          1.0     0.352542      0.699854      0.747091     Biso  1.000000 N
   N          1.0     0.147460      0.199853      0.752912     Biso  1.000000 N
   N          1.0     0.852541      0.199852      0.747082     Biso  1.000000 N
