#======================================================================

# CRYSTAL DATA

#----------------------------------------------------------------------

data_VESTA_phase_1


_chemical_name_common                  '# Quantum Espresso PWSCF output snapsh'
_cell_length_a                         13.90255
_cell_length_b                         5.70222
_cell_length_c                         8.16037
_cell_angle_alpha                      89.99995
_cell_angle_beta                       121.11406
_cell_angle_gamma                      90.00008
_space_group_name_H-M_alt              'P 1'
_space_group_IT_number                 1

loop_
_space_group_symop_operation_xyz
   'x, y, z'

loop_
   _atom_site_label
   _atom_site_occupancy
   _atom_site_fract_x
   _atom_site_fract_y
   _atom_site_fract_z
   _atom_site_adp_type
   _atom_site_B_iso_or_equiv
   _atom_site_type_symbol
   C          1.0     0.258800      0.260013      0.093047     Biso  1.000000 C
   C          1.0     0.741198      0.260014      0.406954     Biso  1.000000 C
   C          1.0     0.758801      0.760013      0.093052     Biso  1.000000 C
   C          1.0     0.241197      0.760014      0.406956     Biso  1.000000 C
   C          1.0     0.741197      0.739985      0.906949     Biso  1.000000 C
   C          1.0     0.258799      0.739989      0.593046     Biso  1.000000 C
   C          1.0     0.241197      0.239986      0.906956     Biso  1.000000 C
   C          1.0     0.758799      0.239989      0.593046     Biso  1.000000 C
   Pb         1.0     1.000000      0.082942      0.250000     Biso  1.000000 Pb
   Pb         1.0     0.499999      0.582943      0.250000     Biso  1.000000 Pb
   Pb         1.0     1.000000      0.917059      0.750000     Biso  1.000000 Pb
   Pb         1.0     0.499998      0.417058      0.750000     Biso  1.000000 Pb
   O          1.0     0.069730      0.236719      0.029320     Biso  1.000000 O
   O          1.0     0.930268      0.236720      0.470682     Biso  1.000000 O
   O          1.0     0.569731      0.736719      0.029321     Biso  1.000000 O
   O          1.0     0.430267      0.736719      0.470681     Biso  1.000000 O
   O          1.0     0.930267      0.763281      0.970681     Biso  1.000000 O
   O          1.0     0.069730      0.763282      0.529320     Biso  1.000000 O
   O          1.0     0.430266      0.263281      0.970680     Biso  1.000000 O
   O          1.0     0.569731      0.263281      0.529321     Biso  1.000000 O
   O          1.0     1.000003      0.478214      0.250003     Biso  1.000000 O
   O          1.0     0.500000      0.978214      0.250002     Biso  1.000000 O
   O          1.0     1.000003      0.521786      0.750002     Biso  1.000000 O
   O          1.0     0.500000      0.021786      0.750001     Biso  1.000000 O
   H          1.0     0.978257      0.579466      0.137613     Biso  1.000000 H
   H          1.0     0.021742      0.579466      0.362390     Biso  1.000000 H
   H          1.0     0.478256      0.079467      0.137612     Biso  1.000000 H
   H          1.0     0.521741      0.079466      0.362390     Biso  1.000000 H
   H          1.0     0.021742      0.420534      0.862390     Biso  1.000000 H
   H          1.0     0.978257      0.420535      0.637612     Biso  1.000000 H
   H          1.0     0.521742      0.920534      0.862390     Biso  1.000000 H
   H          1.0     0.478256      0.920535      0.637612     Biso  1.000000 H
   N          1.0     0.178037      0.258767      0.138216     Biso  1.000000 N
   N          1.0     0.821960      0.258766      0.361785     Biso  1.000000 N
   N          1.0     0.678035      0.758766      0.138214     Biso  1.000000 N
   N          1.0     0.321963      0.758766      0.361787     Biso  1.000000 N
   N          1.0     0.821960      0.741234      0.861787     Biso  1.000000 N
   N          1.0     0.178038      0.741235      0.638217     Biso  1.000000 N
   N          1.0     0.321963      0.241234      0.861788     Biso  1.000000 N
   N          1.0     0.678036      0.241235      0.638215     Biso  1.000000 N
   N          1.0     0.226808      0.267438      0.328553     Biso  1.000000 N
   N          1.0     0.773190      0.267436      0.171449     Biso  1.000000 N
   N          1.0     0.726809      0.767437      0.328552     Biso  1.000000 N
   N          1.0     0.273190      0.767436      0.171449     Biso  1.000000 N
   N          1.0     0.773190      0.732564      0.671449     Biso  1.000000 N
   N          1.0     0.226808      0.732563      0.828553     Biso  1.000000 N
   N          1.0     0.273189      0.232564      0.671449     Biso  1.000000 N
   N          1.0     0.726808      0.232563      0.828552     Biso  1.000000 N
   N          1.0     0.335483      0.278952      0.396833     Biso  1.000000 N
   N          1.0     0.664515      0.278952      0.103167     Biso  1.000000 N
   N          1.0     0.835483      0.778951      0.396833     Biso  1.000000 N
   N          1.0     0.164515      0.778954      0.103167     Biso  1.000000 N
   N          1.0     0.664515      0.721048      0.603168     Biso  1.000000 N
   N          1.0     0.335482      0.721049      0.896834     Biso  1.000000 N
   N          1.0     0.164515      0.221047      0.603168     Biso  1.000000 N
   N          1.0     0.835483      0.221049      0.896833     Biso  1.000000 N
   N          1.0     0.356896      0.278445      0.255496     Biso  1.000000 N
   N          1.0     0.643101      0.278447      0.244504     Biso  1.000000 N
   N          1.0     0.856896      0.778443      0.255495     Biso  1.000000 N
   N          1.0     0.143101      0.778448      0.244504     Biso  1.000000 N
   N          1.0     0.643102      0.721553      0.744506     Biso  1.000000 N
   N          1.0     0.356897      0.721556      0.755497     Biso  1.000000 N
   N          1.0     0.143101      0.221552      0.744505     Biso  1.000000 N
   N          1.0     0.856896      0.221557      0.755496     Biso  1.000000 N
