#======================================================================

# CRYSTAL DATA

#----------------------------------------------------------------------

data_VESTA_phase_1


_chemical_name_common                  '# Quantum Espresso PWSCF output snapsh'
_cell_length_a                         13.83409
_cell_length_b                         5.65521
_cell_length_c                         8.13346
_cell_angle_alpha                      89.99991
_cell_angle_beta                       121.08871
_cell_angle_gamma                      90.00005
_space_group_name_H-M_alt              'P 1'
_space_group_IT_number                 1

loop_
_space_group_symop_operation_xyz
   'x, y, z'

loop_
   _atom_site_label
   _atom_site_occupancy
   _atom_site_fract_x
   _atom_site_fract_y
   _atom_site_fract_z
   _atom_site_adp_type
   _atom_site_B_iso_or_equiv
   _atom_site_type_symbol
   C          1.0     0.258802      0.259707      0.093245     Biso  1.000000 C
   C          1.0     0.741197      0.259708      0.406761     Biso  1.000000 C
   C          1.0     0.758802      0.759706      0.093246     Biso  1.000000 C
   C          1.0     0.241198      0.759709      0.406763     Biso  1.000000 C
   C          1.0     0.741197      0.740291      0.906760     Biso  1.000000 C
   C          1.0     0.258801      0.740293      0.593242     Biso  1.000000 C
   C          1.0     0.241197      0.240290      0.906761     Biso  1.000000 C
   C          1.0     0.758802      0.240294      0.593245     Biso  1.000000 C
   Pb         1.0    -0.000001      0.081874      0.250003     Biso  1.000000 Pb
   Pb         1.0     0.500000      0.581874      0.250003     Biso  1.000000 Pb
   Pb         1.0    -0.000001      0.918126      0.750003     Biso  1.000000 Pb
   Pb         1.0     0.499999      0.418125      0.750003     Biso  1.000000 Pb
   O          1.0     0.069006      0.237874      0.029504     Biso  1.000000 O
   O          1.0     0.930993      0.237877      0.470503     Biso  1.000000 O
   O          1.0     0.569006      0.737876      0.029504     Biso  1.000000 O
   O          1.0     0.430993      0.737875      0.470503     Biso  1.000000 O
   O          1.0     0.930993      0.762123      0.970503     Biso  1.000000 O
   O          1.0     0.069006      0.762125      0.529504     Biso  1.000000 O
   O          1.0     0.430993      0.262125      0.970502     Biso  1.000000 O
   O          1.0     0.569006      0.262123      0.529504     Biso  1.000000 O
   O          1.0     0.000004      0.478102      0.250006     Biso  1.000000 O
   O          1.0     0.499999      0.978102      0.250003     Biso  1.000000 O
   O          1.0     0.000005      0.521898      0.750006     Biso  1.000000 O
   O          1.0     0.500001      0.021898      0.750004     Biso  1.000000 O
   H          1.0     0.978455      0.579684      0.137143     Biso  1.000000 H
   H          1.0     0.021545      0.579685      0.362865     Biso  1.000000 H
   H          1.0     0.478454      0.079684      0.137143     Biso  1.000000 H
   H          1.0     0.521545      0.079684      0.362864     Biso  1.000000 H
   H          1.0     0.021545      0.420314      0.862865     Biso  1.000000 H
   H          1.0     0.978455      0.420316      0.637143     Biso  1.000000 H
   H          1.0     0.521545      0.920315      0.862864     Biso  1.000000 H
   H          1.0     0.478454      0.920315      0.637142     Biso  1.000000 H
   N          1.0     0.177720      0.259393      0.138555     Biso  1.000000 N
   N          1.0     0.822279      0.259392      0.361451     Biso  1.000000 N
   N          1.0     0.677720      0.759392      0.138554     Biso  1.000000 N
   N          1.0     0.322279      0.759393      0.361451     Biso  1.000000 N
   N          1.0     0.822279      0.740607      0.861452     Biso  1.000000 N
   N          1.0     0.177720      0.740607      0.638555     Biso  1.000000 N
   N          1.0     0.322279      0.240607      0.861452     Biso  1.000000 N
   N          1.0     0.677720      0.240607      0.638555     Biso  1.000000 N
   N          1.0     0.226564      0.267345      0.329275     Biso  1.000000 N
   N          1.0     0.773435      0.267343      0.170731     Biso  1.000000 N
   N          1.0     0.726565      0.767344      0.329275     Biso  1.000000 N
   N          1.0     0.273435      0.767344      0.170731     Biso  1.000000 N
   N          1.0     0.773435      0.732656      0.670731     Biso  1.000000 N
   N          1.0     0.226564      0.732654      0.829275     Biso  1.000000 N
   N          1.0     0.273435      0.232656      0.670731     Biso  1.000000 N
   N          1.0     0.726564      0.232655      0.829275     Biso  1.000000 N
   N          1.0     0.335760      0.277544      0.397835     Biso  1.000000 N
   N          1.0     0.664240      0.277542      0.102171     Biso  1.000000 N
   N          1.0     0.835760      0.777541      0.397835     Biso  1.000000 N
   N          1.0     0.164240      0.777545      0.102170     Biso  1.000000 N
   N          1.0     0.664239      0.722457      0.602171     Biso  1.000000 N
   N          1.0     0.335760      0.722456      0.897835     Biso  1.000000 N
   N          1.0     0.164239      0.222454      0.602171     Biso  1.000000 N
   N          1.0     0.835760      0.222459      0.897835     Biso  1.000000 N
   N          1.0     0.357256      0.276884      0.256157     Biso  1.000000 N
   N          1.0     0.642743      0.276883      0.243847     Biso  1.000000 N
   N          1.0     0.857256      0.776880      0.256158     Biso  1.000000 N
   N          1.0     0.142743      0.776887      0.243847     Biso  1.000000 N
   N          1.0     0.642743      0.723115      0.743848     Biso  1.000000 N
   N          1.0     0.357256      0.723118      0.756158     Biso  1.000000 N
   N          1.0     0.142743      0.223112      0.743848     Biso  1.000000 N
   N          1.0     0.857256      0.223120      0.756158     Biso  1.000000 N
