#======================================================================

# CRYSTAL DATA

#----------------------------------------------------------------------

data_VESTA_phase_1


_chemical_name_common                  '# Quantum Espresso PWSCF output snapsh'
_cell_length_a                         13.80141
_cell_length_b                         5.63303
_cell_length_c                         8.12076
_cell_angle_alpha                      89.99991
_cell_angle_beta                       121.07816
_cell_angle_gamma                      90.00003
_space_group_name_H-M_alt              'P 1'
_space_group_IT_number                 1

loop_
_space_group_symop_operation_xyz
   'x, y, z'

loop_
   _atom_site_label
   _atom_site_occupancy
   _atom_site_fract_x
   _atom_site_fract_y
   _atom_site_fract_z
   _atom_site_adp_type
   _atom_site_B_iso_or_equiv
   _atom_site_type_symbol
   C          1.0     0.258804      0.259562      0.093337     Biso  1.000000 C
   C          1.0     0.741198      0.259562      0.406673     Biso  1.000000 C
   C          1.0     0.758804      0.759560      0.093335     Biso  1.000000 C
   C          1.0     0.241198      0.759565      0.406668     Biso  1.000000 C
   C          1.0     0.741198      0.740437      0.906674     Biso  1.000000 C
   C          1.0     0.258804      0.740438      0.593340     Biso  1.000000 C
   C          1.0     0.241198      0.240436      0.906672     Biso  1.000000 C
   C          1.0     0.758804      0.240440      0.593336     Biso  1.000000 C
   Pb         1.0     1.000001      0.081369      0.250005     Biso  1.000000 Pb
   Pb         1.0     0.500001      0.581369      0.250005     Biso  1.000000 Pb
   Pb         1.0     1.000000      0.918631      0.750004     Biso  1.000000 Pb
   Pb         1.0     0.500001      0.418630      0.750004     Biso  1.000000 Pb
   O          1.0     0.068661      0.238410      0.029589     Biso  1.000000 O
   O          1.0     0.931341      0.238415      0.470421     Biso  1.000000 O
   O          1.0     0.568661      0.738413      0.029589     Biso  1.000000 O
   O          1.0     0.431342      0.738412      0.470421     Biso  1.000000 O
   O          1.0     0.931341      0.761586      0.970421     Biso  1.000000 O
   O          1.0     0.068660      0.761589      0.529589     Biso  1.000000 O
   O          1.0     0.431341      0.261588      0.970421     Biso  1.000000 O
   O          1.0     0.568661      0.261586      0.529589     Biso  1.000000 O
   O          1.0     0.000007      0.478071      0.250009     Biso  1.000000 O
   O          1.0     0.500000      0.978071      0.250004     Biso  1.000000 O
   O          1.0     0.000008      0.521929      0.750009     Biso  1.000000 O
   O          1.0     0.500002      0.021929      0.750004     Biso  1.000000 O
   H          1.0     0.978549      0.579806      0.136921     Biso  1.000000 H
   H          1.0     0.021454      0.579807      0.363091     Biso  1.000000 H
   H          1.0     0.478549      0.079807      0.136919     Biso  1.000000 H
   H          1.0     0.521453      0.079806      0.363090     Biso  1.000000 H
   H          1.0     0.021454      0.420192      0.863091     Biso  1.000000 H
   H          1.0     0.978549      0.420194      0.636921     Biso  1.000000 H
   H          1.0     0.521453      0.920193      0.863090     Biso  1.000000 H
   H          1.0     0.478549      0.920193      0.636920     Biso  1.000000 H
   N          1.0     0.177570      0.259680      0.138713     Biso  1.000000 N
   N          1.0     0.822433      0.259679      0.361297     Biso  1.000000 N
   N          1.0     0.677569      0.759679      0.138712     Biso  1.000000 N
   N          1.0     0.322431      0.759680      0.361296     Biso  1.000000 N
   N          1.0     0.822433      0.740321      0.861297     Biso  1.000000 N
   N          1.0     0.177571      0.740320      0.638713     Biso  1.000000 N
   N          1.0     0.322432      0.240321      0.861296     Biso  1.000000 N
   N          1.0     0.677569      0.240320      0.638712     Biso  1.000000 N
   N          1.0     0.226446      0.267303      0.329612     Biso  1.000000 N
   N          1.0     0.773556      0.267300      0.170397     Biso  1.000000 N
   N          1.0     0.726447      0.767301      0.329612     Biso  1.000000 N
   N          1.0     0.273557      0.767302      0.170397     Biso  1.000000 N
   N          1.0     0.773556      0.732700      0.670398     Biso  1.000000 N
   N          1.0     0.226446      0.732697      0.829612     Biso  1.000000 N
   N          1.0     0.273556      0.232699      0.670398     Biso  1.000000 N
   N          1.0     0.726446      0.232698      0.829612     Biso  1.000000 N
   N          1.0     0.335891      0.276895      0.398306     Biso  1.000000 N
   N          1.0     0.664111      0.276891      0.101702     Biso  1.000000 N
   N          1.0     0.835891      0.776890      0.398307     Biso  1.000000 N
   N          1.0     0.164112      0.776896      0.101702     Biso  1.000000 N
   N          1.0     0.664111      0.723108      0.601702     Biso  1.000000 N
   N          1.0     0.335891      0.723106      0.898306     Biso  1.000000 N
   N          1.0     0.164111      0.223103      0.601702     Biso  1.000000 N
   N          1.0     0.835891      0.223110      0.898307     Biso  1.000000 N
   N          1.0     0.357426      0.276163      0.256470     Biso  1.000000 N
   N          1.0     0.642576      0.276160      0.243537     Biso  1.000000 N
   N          1.0     0.857427      0.776157      0.256472     Biso  1.000000 N
   N          1.0     0.142577      0.776166      0.243538     Biso  1.000000 N
   N          1.0     0.642576      0.723838      0.743537     Biso  1.000000 N
   N          1.0     0.357425      0.723839      0.756470     Biso  1.000000 N
   N          1.0     0.142576      0.223833      0.743538     Biso  1.000000 N
   N          1.0     0.857426      0.223844      0.756472     Biso  1.000000 N
