#======================================================================

# CRYSTAL DATA

#----------------------------------------------------------------------

data_VESTA_phase_1


_chemical_name_common                  '# Quantum Espresso PWSCF output snapsh'
_cell_length_a                         14.50344
_cell_length_b                         6.23088
_cell_length_c                         8.44016
_cell_angle_alpha                      90.00005
_cell_angle_beta                       121.66871
_cell_angle_gamma                      89.99999
_space_group_name_H-M_alt              'P 1'
_space_group_IT_number                 1

loop_
_space_group_symop_operation_xyz
   'x, y, z'

loop_
   _atom_site_label
   _atom_site_occupancy
   _atom_site_fract_x
   _atom_site_fract_y
   _atom_site_fract_z
   _atom_site_adp_type
   _atom_site_B_iso_or_equiv
   _atom_site_type_symbol
   C          1.0     0.258707      0.262156      0.090872     Biso  1.000000 C
   C          1.0     0.741280      0.262156      0.409126     Biso  1.000000 C
   C          1.0     0.758704      0.762159      0.090867     Biso  1.000000 C
   C          1.0     0.241284      0.762160      0.409127     Biso  1.000000 C
   C          1.0     0.741282      0.737845      0.909126     Biso  1.000000 C
   C          1.0     0.258707      0.737844      0.590870     Biso  1.000000 C
   C          1.0     0.241283      0.237841      0.909128     Biso  1.000000 C
   C          1.0     0.758704      0.237841      0.590869     Biso  1.000000 C
   Pb         1.0    -0.000006      0.094068      0.249998     Biso  1.000000 Pb
   Pb         1.0     0.499994      0.594067      0.249998     Biso  1.000000 Pb
   Pb         1.0    -0.000006      0.905932      0.749998     Biso  1.000000 Pb
   Pb         1.0     0.499994      0.405933      0.749998     Biso  1.000000 Pb
   O          1.0     0.075726      0.222934      0.026298     Biso  1.000000 O
   O          1.0     0.924261      0.222934      0.473698     Biso  1.000000 O
   O          1.0     0.575725      0.722936      0.026298     Biso  1.000000 O
   O          1.0     0.424264      0.722936      0.473697     Biso  1.000000 O
   O          1.0     0.924262      0.777066      0.973698     Biso  1.000000 O
   O          1.0     0.075727      0.777066      0.526298     Biso  1.000000 O
   O          1.0     0.424263      0.277065      0.973698     Biso  1.000000 O
   O          1.0     0.575724      0.277065      0.526299     Biso  1.000000 O
   O          1.0    -0.000005      0.480556      0.249998     Biso  1.000000 O
   O          1.0     0.499994      0.980555      0.249998     Biso  1.000000 O
   O          1.0    -0.000005      0.519444      0.749999     Biso  1.000000 O
   O          1.0     0.499993      0.019445      0.749998     Biso  1.000000 O
   H          1.0     0.977592      0.577085      0.142628     Biso  1.000000 H
   H          1.0     0.022397      0.577086      0.357368     Biso  1.000000 H
   H          1.0     0.477593      0.077085      0.142629     Biso  1.000000 H
   H          1.0     0.522394      0.077084      0.357367     Biso  1.000000 H
   H          1.0     0.022396      0.422915      0.857368     Biso  1.000000 H
   H          1.0     0.977592      0.422914      0.642628     Biso  1.000000 H
   H          1.0     0.522395      0.922916      0.857368     Biso  1.000000 H
   H          1.0     0.477593      0.922916      0.642630     Biso  1.000000 H
   N          1.0     0.180684      0.250181      0.134076     Biso  1.000000 N
   N          1.0     0.819305      0.250180      0.365922     Biso  1.000000 N
   N          1.0     0.680682      0.750182      0.134075     Biso  1.000000 N
   N          1.0     0.319306      0.750182      0.365921     Biso  1.000000 N
   N          1.0     0.819304      0.749820      0.865919     Biso  1.000000 N
   N          1.0     0.180683      0.749820      0.634075     Biso  1.000000 N
   N          1.0     0.319307      0.249819      0.865922     Biso  1.000000 N
   N          1.0     0.680681      0.249819      0.634075     Biso  1.000000 N
   N          1.0     0.228645      0.267104      0.320301     Biso  1.000000 N
   N          1.0     0.771342      0.267103      0.179697     Biso  1.000000 N
   N          1.0     0.728645      0.767101      0.320300     Biso  1.000000 N
   N          1.0     0.271343      0.767102      0.179696     Biso  1.000000 N
   N          1.0     0.771342      0.732897      0.679696     Biso  1.000000 N
   N          1.0     0.228646      0.732897      0.820300     Biso  1.000000 N
   N          1.0     0.271342      0.232899      0.679696     Biso  1.000000 N
   N          1.0     0.728645      0.232899      0.820301     Biso  1.000000 N
   N          1.0     0.332807      0.293934      0.386534     Biso  1.000000 N
   N          1.0     0.667181      0.293934      0.113463     Biso  1.000000 N
   N          1.0     0.832806      0.793932      0.386532     Biso  1.000000 N
   N          1.0     0.167182      0.793933      0.113464     Biso  1.000000 N
   N          1.0     0.667181      0.706067      0.613462     Biso  1.000000 N
   N          1.0     0.332807      0.706066      0.886533     Biso  1.000000 N
   N          1.0     0.167181      0.206068      0.613464     Biso  1.000000 N
   N          1.0     0.832806      0.206068      0.886533     Biso  1.000000 N
   N          1.0     0.353551      0.294972      0.249153     Biso  1.000000 N
   N          1.0     0.646437      0.294972      0.250844     Biso  1.000000 N
   N          1.0     0.853550      0.794973      0.249150     Biso  1.000000 N
   N          1.0     0.146439      0.794974      0.250846     Biso  1.000000 N
   N          1.0     0.646437      0.705029      0.750843     Biso  1.000000 N
   N          1.0     0.353551      0.705028      0.749152     Biso  1.000000 N
   N          1.0     0.146438      0.205027      0.750846     Biso  1.000000 N
   N          1.0     0.853549      0.205027      0.749150     Biso  1.000000 N
