#======================================================================

# CRYSTAL DATA

#----------------------------------------------------------------------

data_VESTA_phase_1


_chemical_name_common                  '# Quantum Espresso PWSCF output snapsh'
_cell_length_a                         14.53356
_cell_length_b                         6.26637
_cell_length_c                         8.45692
_cell_angle_alpha                      90.00005
_cell_angle_beta                       121.71729
_cell_angle_gamma                      89.99998
_space_group_name_H-M_alt              'P 1'
_space_group_IT_number                 1

loop_
_space_group_symop_operation_xyz
   'x, y, z'

loop_
   _atom_site_label
   _atom_site_occupancy
   _atom_site_fract_x
   _atom_site_fract_y
   _atom_site_fract_z
   _atom_site_adp_type
   _atom_site_B_iso_or_equiv
   _atom_site_type_symbol
   C          1.0     0.258702      0.262244      0.090736     Biso  1.000000 C
   C          1.0     0.741293      0.262244      0.409264     Biso  1.000000 C
   C          1.0     0.758698      0.762248      0.090735     Biso  1.000000 C
   C          1.0     0.241296      0.762249      0.409267     Biso  1.000000 C
   C          1.0     0.741292      0.737756      0.909263     Biso  1.000000 C
   C          1.0     0.258702      0.737756      0.590736     Biso  1.000000 C
   C          1.0     0.241294      0.237752      0.909265     Biso  1.000000 C
   C          1.0     0.758698      0.237753      0.590733     Biso  1.000000 C
   Pb         1.0     0.000001      0.094725      0.250000     Biso  1.000000 Pb
   Pb         1.0     0.499997      0.594726      0.249999     Biso  1.000000 Pb
   Pb         1.0     0.000001      0.905274      0.750000     Biso  1.000000 Pb
   Pb         1.0     0.499997      0.405275      0.749999     Biso  1.000000 Pb
   O          1.0     0.076021      0.222040      0.026088     Biso  1.000000 O
   O          1.0     0.923972      0.222040      0.473911     Biso  1.000000 O
   O          1.0     0.576019      0.722042      0.026089     Biso  1.000000 O
   O          1.0     0.423975      0.722042      0.473911     Biso  1.000000 O
   O          1.0     0.923973      0.777960      0.973911     Biso  1.000000 O
   O          1.0     0.076020      0.777961      0.526090     Biso  1.000000 O
   O          1.0     0.423974      0.277958      0.973909     Biso  1.000000 O
   O          1.0     0.576018      0.277959      0.526089     Biso  1.000000 O
   O          1.0     0.000001      0.480686      0.250000     Biso  1.000000 O
   O          1.0     0.499997      0.980685      0.250000     Biso  1.000000 O
   O          1.0     0.000001      0.519314      0.750000     Biso  1.000000 O
   O          1.0     0.499996      0.019315      0.750001     Biso  1.000000 O
   H          1.0     0.977629      0.576830      0.142925     Biso  1.000000 H
   H          1.0     0.022365      0.576830      0.357074     Biso  1.000000 H
   H          1.0     0.477630      0.076829      0.142926     Biso  1.000000 H
   H          1.0     0.522364      0.076830      0.357072     Biso  1.000000 H
   H          1.0     0.022365      0.423170      0.857073     Biso  1.000000 H
   H          1.0     0.977628      0.423170      0.642925     Biso  1.000000 H
   H          1.0     0.522363      0.923171      0.857074     Biso  1.000000 H
   H          1.0     0.477630      0.923171      0.642926     Biso  1.000000 H
   N          1.0     0.180821      0.249599      0.133816     Biso  1.000000 N
   N          1.0     0.819173      0.249600      0.366182     Biso  1.000000 N
   N          1.0     0.680819      0.749601      0.133816     Biso  1.000000 N
   N          1.0     0.319174      0.749601      0.366184     Biso  1.000000 N
   N          1.0     0.819173      0.750401      0.866184     Biso  1.000000 N
   N          1.0     0.180821      0.750401      0.633816     Biso  1.000000 N
   N          1.0     0.319174      0.250400      0.866183     Biso  1.000000 N
   N          1.0     0.680819      0.250399      0.633815     Biso  1.000000 N
   N          1.0     0.228740      0.267017      0.319788     Biso  1.000000 N
   N          1.0     0.771253      0.267018      0.180210     Biso  1.000000 N
   N          1.0     0.728739      0.767016      0.319789     Biso  1.000000 N
   N          1.0     0.271255      0.767016      0.180211     Biso  1.000000 N
   N          1.0     0.771253      0.732983      0.680211     Biso  1.000000 N
   N          1.0     0.228740      0.732983      0.819789     Biso  1.000000 N
   N          1.0     0.271254      0.232984      0.680210     Biso  1.000000 N
   N          1.0     0.728740      0.232984      0.819788     Biso  1.000000 N
   N          1.0     0.332669      0.294798      0.385924     Biso  1.000000 N
   N          1.0     0.667324      0.294798      0.114075     Biso  1.000000 N
   N          1.0     0.832669      0.794796      0.385924     Biso  1.000000 N
   N          1.0     0.167325      0.794797      0.114078     Biso  1.000000 N
   N          1.0     0.667324      0.705203      0.614075     Biso  1.000000 N
   N          1.0     0.332669      0.705203      0.885925     Biso  1.000000 N
   N          1.0     0.167325      0.205204      0.614076     Biso  1.000000 N
   N          1.0     0.832669      0.205204      0.885923     Biso  1.000000 N
   N          1.0     0.353372      0.295930      0.248788     Biso  1.000000 N
   N          1.0     0.646621      0.295930      0.251211     Biso  1.000000 N
   N          1.0     0.853370      0.795932      0.248786     Biso  1.000000 N
   N          1.0     0.146623      0.795932      0.251214     Biso  1.000000 N
   N          1.0     0.646622      0.704070      0.751212     Biso  1.000000 N
   N          1.0     0.353373      0.704069      0.748789     Biso  1.000000 N
   N          1.0     0.146623      0.204068      0.751213     Biso  1.000000 N
   N          1.0     0.853370      0.204068      0.748785     Biso  1.000000 N
