#======================================================================

# CRYSTAL DATA

#----------------------------------------------------------------------

data_VESTA_phase_1


_chemical_name_common                  '# Quantum Espresso PWSCF output snapsh'
_cell_length_a                         13.73884
_cell_length_b                         5.59103
_cell_length_c                         8.09671
_cell_angle_alpha                      89.99997
_cell_angle_beta                       121.06200
_cell_angle_gamma                      89.99997
_space_group_name_H-M_alt              'P 1'
_space_group_IT_number                 1

loop_
_space_group_symop_operation_xyz
   'x, y, z'

loop_
   _atom_site_label
   _atom_site_occupancy
   _atom_site_fract_x
   _atom_site_fract_y
   _atom_site_fract_z
   _atom_site_adp_type
   _atom_site_B_iso_or_equiv
   _atom_site_type_symbol
   C          1.0     0.258797      0.259266      0.093502     Biso  1.000000 C
   C          1.0     0.741195      0.259265      0.406501     Biso  1.000000 C
   C          1.0     0.758798      0.759261      0.093503     Biso  1.000000 C
   C          1.0     0.241195      0.759270      0.406499     Biso  1.000000 C
   C          1.0     0.741194      0.740733      0.906500     Biso  1.000000 C
   C          1.0     0.258797      0.740733      0.593503     Biso  1.000000 C
   C          1.0     0.241195      0.240729      0.906500     Biso  1.000000 C
   C          1.0     0.758797      0.240737      0.593502     Biso  1.000000 C
   Pb         1.0     0.999994      0.080360      0.250001     Biso  1.000000 Pb
   Pb         1.0     0.499997      0.580360      0.250001     Biso  1.000000 Pb
   Pb         1.0     0.999995      0.919638      0.750001     Biso  1.000000 Pb
   Pb         1.0     0.499997      0.419638      0.750001     Biso  1.000000 Pb
   O          1.0     0.067984      0.239399      0.029738     Biso  1.000000 O
   O          1.0     0.932008      0.239408      0.470268     Biso  1.000000 O
   O          1.0     0.567985      0.739406      0.029736     Biso  1.000000 O
   O          1.0     0.432009      0.739401      0.470266     Biso  1.000000 O
   O          1.0     0.932008      0.760590      0.970268     Biso  1.000000 O
   O          1.0     0.067984      0.760600      0.529738     Biso  1.000000 O
   O          1.0     0.432008      0.260597      0.970267     Biso  1.000000 O
   O          1.0     0.567984      0.260592      0.529736     Biso  1.000000 O
   O          1.0     0.000012      0.478005      0.250011     Biso  1.000000 O
   O          1.0     0.499994      0.978005      0.249999     Biso  1.000000 O
   O          1.0     0.000007      0.521993      0.750009     Biso  1.000000 O
   O          1.0     0.499991      0.021993      0.749998     Biso  1.000000 O
   H          1.0     0.978732      0.580025      0.136497     Biso  1.000000 H
   H          1.0     0.021262      0.580029      0.363511     Biso  1.000000 H
   H          1.0     0.478731      0.080028      0.136493     Biso  1.000000 H
   H          1.0     0.521261      0.080026      0.363507     Biso  1.000000 H
   H          1.0     0.021262      0.419970      0.863511     Biso  1.000000 H
   H          1.0     0.978732      0.419974      0.636497     Biso  1.000000 H
   H          1.0     0.521261      0.919973      0.863507     Biso  1.000000 H
   H          1.0     0.478731      0.919971      0.636493     Biso  1.000000 H
   N          1.0     0.177274      0.260185      0.139001     Biso  1.000000 N
   N          1.0     0.822719      0.260182      0.361003     Biso  1.000000 N
   N          1.0     0.677274      0.760183      0.139001     Biso  1.000000 N
   N          1.0     0.322719      0.760184      0.361002     Biso  1.000000 N
   N          1.0     0.822718      0.739816      0.861003     Biso  1.000000 N
   N          1.0     0.177273      0.739815      0.639000     Biso  1.000000 N
   N          1.0     0.322719      0.239815      0.861002     Biso  1.000000 N
   N          1.0     0.677274      0.239816      0.639001     Biso  1.000000 N
   N          1.0     0.226212      0.267194      0.330240     Biso  1.000000 N
   N          1.0     0.773782      0.267187      0.169764     Biso  1.000000 N
   N          1.0     0.726212      0.767189      0.330240     Biso  1.000000 N
   N          1.0     0.273782      0.767191      0.169763     Biso  1.000000 N
   N          1.0     0.773781      0.732812      0.669764     Biso  1.000000 N
   N          1.0     0.226211      0.732806      0.830240     Biso  1.000000 N
   N          1.0     0.273781      0.232808      0.669763     Biso  1.000000 N
   N          1.0     0.726211      0.232810      0.830240     Biso  1.000000 N
   N          1.0     0.336138      0.275662      0.399203     Biso  1.000000 N
   N          1.0     0.663856      0.275653      0.100799     Biso  1.000000 N
   N          1.0     0.836138      0.775649      0.399203     Biso  1.000000 N
   N          1.0     0.163856      0.775665      0.100799     Biso  1.000000 N
   N          1.0     0.663855      0.724346      0.600799     Biso  1.000000 N
   N          1.0     0.336137      0.724336      0.899202     Biso  1.000000 N
   N          1.0     0.163856      0.224335      0.600800     Biso  1.000000 N
   N          1.0     0.836137      0.224348      0.899204     Biso  1.000000 N
   N          1.0     0.357745      0.274799      0.257069     Biso  1.000000 N
   N          1.0     0.642247      0.274793      0.242932     Biso  1.000000 N
   N          1.0     0.857746      0.774785      0.257070     Biso  1.000000 N
   N          1.0     0.142249      0.774808      0.242932     Biso  1.000000 N
   N          1.0     0.642247      0.725207      0.742932     Biso  1.000000 N
   N          1.0     0.357744      0.725199      0.757068     Biso  1.000000 N
   N          1.0     0.142248      0.225193      0.742933     Biso  1.000000 N
   N          1.0     0.857745      0.225212      0.757071     Biso  1.000000 N
