#======================================================================

# CRYSTAL DATA

#----------------------------------------------------------------------

data_VESTA_phase_1


_chemical_name_common                  '# Quantum Espresso PWSCF output snapsh'
_cell_length_a                         13.70895
_cell_length_b                         5.57101
_cell_length_c                         8.08528
_cell_angle_alpha                      90
_cell_angle_beta                       121.05540
_cell_angle_gamma                      90
_space_group_name_H-M_alt              'P 1'
_space_group_IT_number                 1

loop_
_space_group_symop_operation_xyz
   'x, y, z'

loop_
   _atom_site_label
   _atom_site_occupancy
   _atom_site_fract_x
   _atom_site_fract_y
   _atom_site_fract_z
   _atom_site_adp_type
   _atom_site_B_iso_or_equiv
   _atom_site_type_symbol
   C          1.0     0.258798      0.259115      0.093585     Biso  1.000000 C
   C          1.0     0.741199      0.259132      0.406423     Biso  1.000000 C
   C          1.0     0.758800      0.759107      0.093589     Biso  1.000000 C
   C          1.0     0.241199      0.759139      0.406427     Biso  1.000000 C
   C          1.0     0.741198      0.740866      0.906422     Biso  1.000000 C
   C          1.0     0.258798      0.740884      0.593585     Biso  1.000000 C
   C          1.0     0.241199      0.240860      0.906428     Biso  1.000000 C
   C          1.0     0.758799      0.240891      0.593588     Biso  1.000000 C
   Pb         1.0     0.999991      0.079872      0.249951     Biso  1.000000 Pb
   Pb         1.0     0.499995      0.579872      0.249952     Biso  1.000000 Pb
   Pb         1.0     0.999992      0.920126      0.749951     Biso  1.000000 Pb
   Pb         1.0     0.499995      0.420126      0.749952     Biso  1.000000 Pb
   O          1.0     0.067664      0.239847      0.029798     Biso  1.000000 O
   O          1.0     0.932331      0.239889      0.470183     Biso  1.000000 O
   O          1.0     0.567665      0.739857      0.029796     Biso  1.000000 O
   O          1.0     0.432330      0.739878      0.470178     Biso  1.000000 O
   O          1.0     0.932331      0.760109      0.970183     Biso  1.000000 O
   O          1.0     0.067664      0.760152      0.529798     Biso  1.000000 O
   O          1.0     0.432329      0.260120      0.970179     Biso  1.000000 O
   O          1.0     0.567664      0.260141      0.529796     Biso  1.000000 O
   O          1.0     0.000053      0.477989      0.250032     Biso  1.000000 O
   O          1.0     0.500026      0.977989      0.250014     Biso  1.000000 O
   O          1.0     0.000047      0.522009      0.750030     Biso  1.000000 O
   O          1.0     0.500023      0.022009      0.750013     Biso  1.000000 O
   H          1.0     0.978814      0.580186      0.136321     Biso  1.000000 H
   H          1.0     0.021174      0.580105      0.363741     Biso  1.000000 H
   H          1.0     0.478813      0.080191      0.136314     Biso  1.000000 H
   H          1.0     0.521172      0.080101      0.363735     Biso  1.000000 H
   H          1.0     0.021174      0.419894      0.863741     Biso  1.000000 H
   H          1.0     0.978814      0.419813      0.636320     Biso  1.000000 H
   H          1.0     0.521172      0.919898      0.863735     Biso  1.000000 H
   H          1.0     0.478812      0.919808      0.636314     Biso  1.000000 H
   N          1.0     0.177135      0.260415      0.139135     Biso  1.000000 N
   N          1.0     0.822856      0.260414      0.360861     Biso  1.000000 N
   N          1.0     0.677135      0.760413      0.139133     Biso  1.000000 N
   N          1.0     0.322860      0.760416      0.360863     Biso  1.000000 N
   N          1.0     0.822855      0.739584      0.860861     Biso  1.000000 N
   N          1.0     0.177134      0.739585      0.639133     Biso  1.000000 N
   N          1.0     0.322859      0.239583      0.860863     Biso  1.000000 N
   N          1.0     0.677135      0.239586      0.639133     Biso  1.000000 N
   N          1.0     0.226097      0.267145      0.330533     Biso  1.000000 N
   N          1.0     0.773889      0.267125      0.169462     Biso  1.000000 N
   N          1.0     0.726097      0.767138      0.330533     Biso  1.000000 N
   N          1.0     0.273888      0.767132      0.169461     Biso  1.000000 N
   N          1.0     0.773888      0.732874      0.669462     Biso  1.000000 N
   N          1.0     0.226096      0.732855      0.830533     Biso  1.000000 N
   N          1.0     0.273887      0.232867      0.669461     Biso  1.000000 N
   N          1.0     0.726096      0.232861      0.830532     Biso  1.000000 N
   N          1.0     0.336254      0.275083      0.399631     Biso  1.000000 N
   N          1.0     0.663733      0.275077      0.100371     Biso  1.000000 N
   N          1.0     0.836254      0.775064      0.399630     Biso  1.000000 N
   N          1.0     0.163733      0.775097      0.100371     Biso  1.000000 N
   N          1.0     0.663732      0.724922      0.600371     Biso  1.000000 N
   N          1.0     0.336253      0.724915      0.899630     Biso  1.000000 N
   N          1.0     0.163733      0.224903      0.600372     Biso  1.000000 N
   N          1.0     0.836253      0.224933      0.899631     Biso  1.000000 N
   N          1.0     0.357900      0.274152      0.257363     Biso  1.000000 N
   N          1.0     0.642096      0.274169      0.242651     Biso  1.000000 N
   N          1.0     0.857901      0.774129      0.257363     Biso  1.000000 N
   N          1.0     0.142097      0.774191      0.242651     Biso  1.000000 N
   N          1.0     0.642096      0.725831      0.742651     Biso  1.000000 N
   N          1.0     0.357899      0.725846      0.757362     Biso  1.000000 N
   N          1.0     0.142096      0.225810      0.742652     Biso  1.000000 N
   N          1.0     0.857900      0.225868      0.757364     Biso  1.000000 N
