#======================================================================

# CRYSTAL DATA

#----------------------------------------------------------------------

data_VESTA_phase_1


_chemical_name_common                  '# Quantum Espresso PWSCF output snapsh'
_cell_length_a                         13.67989
_cell_length_b                         5.55166
_cell_length_c                         8.07416
_cell_angle_alpha                      90.00001
_cell_angle_beta                       121.05010
_cell_angle_gamma                      90.00003
_space_group_name_H-M_alt              'P 1'
_space_group_IT_number                 1

loop_
_space_group_symop_operation_xyz
   'x, y, z'

loop_
   _atom_site_label
   _atom_site_occupancy
   _atom_site_fract_x
   _atom_site_fract_y
   _atom_site_fract_z
   _atom_site_adp_type
   _atom_site_B_iso_or_equiv
   _atom_site_type_symbol
   C          1.0     0.258788      0.258961      0.093652     Biso  1.000000 C
   C          1.0     0.741188      0.258982      0.406334     Biso  1.000000 C
   C          1.0     0.758789      0.758947      0.093652     Biso  1.000000 C
   C          1.0     0.241189      0.758997      0.406333     Biso  1.000000 C
   C          1.0     0.741188      0.741016      0.906334     Biso  1.000000 C
   C          1.0     0.258787      0.741038      0.593651     Biso  1.000000 C
   C          1.0     0.241189      0.241003      0.906334     Biso  1.000000 C
   C          1.0     0.758788      0.241051      0.593652     Biso  1.000000 C
   Pb         1.0     0.999981      0.079396      0.249994     Biso  1.000000 Pb
   Pb         1.0     0.499987      0.579396      0.249995     Biso  1.000000 Pb
   Pb         1.0     0.999981      0.920603      0.749995     Biso  1.000000 Pb
   Pb         1.0     0.499987      0.420602      0.749995     Biso  1.000000 Pb
   O          1.0     0.067345      0.240289      0.029884     Biso  1.000000 O
   O          1.0     0.932636      0.240325      0.470131     Biso  1.000000 O
   O          1.0     0.567346      0.740310      0.029879     Biso  1.000000 O
   O          1.0     0.432637      0.740305      0.470126     Biso  1.000000 O
   O          1.0     0.932636      0.759671      0.970131     Biso  1.000000 O
   O          1.0     0.067344      0.759712      0.529884     Biso  1.000000 O
   O          1.0     0.432636      0.259691      0.970126     Biso  1.000000 O
   O          1.0     0.567345      0.259691      0.529880     Biso  1.000000 O
   O          1.0     0.000062      0.477981      0.250046     Biso  1.000000 O
   O          1.0     0.500013      0.977981      0.250011     Biso  1.000000 O
   O          1.0     0.000054      0.522017      0.750041     Biso  1.000000 O
   O          1.0     0.500007      0.022018      0.750008     Biso  1.000000 O
   H          1.0     0.978891      0.580252      0.136098     Biso  1.000000 H
   H          1.0     0.021095      0.580275      0.363924     Biso  1.000000 H
   H          1.0     0.478889      0.080260      0.136087     Biso  1.000000 H
   H          1.0     0.521093      0.080266      0.363913     Biso  1.000000 H
   H          1.0     0.021095      0.419725      0.863924     Biso  1.000000 H
   H          1.0     0.978892      0.419746      0.636098     Biso  1.000000 H
   H          1.0     0.521093      0.919733      0.863913     Biso  1.000000 H
   H          1.0     0.478889      0.919738      0.636087     Biso  1.000000 H
   N          1.0     0.176995      0.260622      0.139268     Biso  1.000000 N
   N          1.0     0.822987      0.260612      0.360730     Biso  1.000000 N
   N          1.0     0.676995      0.760618      0.139268     Biso  1.000000 N
   N          1.0     0.322988      0.760616      0.360729     Biso  1.000000 N
   N          1.0     0.822986      0.739384      0.860730     Biso  1.000000 N
   N          1.0     0.176994      0.739379      0.639268     Biso  1.000000 N
   N          1.0     0.322987      0.239381      0.860729     Biso  1.000000 N
   N          1.0     0.676995      0.239382      0.639268     Biso  1.000000 N
   N          1.0     0.225992      0.267086      0.330826     Biso  1.000000 N
   N          1.0     0.773999      0.267048      0.169175     Biso  1.000000 N
   N          1.0     0.725992      0.767074      0.330826     Biso  1.000000 N
   N          1.0     0.273999      0.767060      0.169173     Biso  1.000000 N
   N          1.0     0.773998      0.732949      0.669174     Biso  1.000000 N
   N          1.0     0.225991      0.732914      0.830826     Biso  1.000000 N
   N          1.0     0.273998      0.232937      0.669173     Biso  1.000000 N
   N          1.0     0.725991      0.232926      0.830826     Biso  1.000000 N
   N          1.0     0.336372      0.274526      0.400040     Biso  1.000000 N
   N          1.0     0.663616      0.274512      0.099945     Biso  1.000000 N
   N          1.0     0.836374      0.774490      0.400042     Biso  1.000000 N
   N          1.0     0.163617      0.774548      0.099946     Biso  1.000000 N
   N          1.0     0.663615      0.725488      0.599945     Biso  1.000000 N
   N          1.0     0.336372      0.725471      0.900040     Biso  1.000000 N
   N          1.0     0.163616      0.225453      0.599947     Biso  1.000000 N
   N          1.0     0.836373      0.225506      0.900043     Biso  1.000000 N
   N          1.0     0.358041      0.273532      0.257625     Biso  1.000000 N
   N          1.0     0.641939      0.273555      0.242351     Biso  1.000000 N
   N          1.0     0.858044      0.773489      0.257628     Biso  1.000000 N
   N          1.0     0.141942      0.773597      0.242353     Biso  1.000000 N
   N          1.0     0.641938      0.726446      0.742351     Biso  1.000000 N
   N          1.0     0.358040      0.726464      0.757625     Biso  1.000000 N
   N          1.0     0.141941      0.226406      0.742354     Biso  1.000000 N
   N          1.0     0.858043      0.226504      0.757629     Biso  1.000000 N
