#======================================================================

# CRYSTAL DATA

#----------------------------------------------------------------------

data_VESTA_phase_1


_chemical_name_common                  '# Quantum Espresso PWSCF output snapsh'
_cell_length_a                         13.61421
_cell_length_b                         5.48789
_cell_length_c                         8.02786
_cell_angle_alpha                      90.00003
_cell_angle_beta                       121.31017
_cell_angle_gamma                      90.00028
_space_group_name_H-M_alt              'P 1'
_space_group_IT_number                 1

loop_
_space_group_symop_operation_xyz
   'x, y, z'

loop_
   _atom_site_label
   _atom_site_occupancy
   _atom_site_fract_x
   _atom_site_fract_y
   _atom_site_fract_z
   _atom_site_adp_type
   _atom_site_B_iso_or_equiv
   _atom_site_type_symbol
   C          1.0     0.258158      0.269022      0.092894     Biso  1.000000 C
   C          1.0     0.740232      0.243920      0.405385     Biso  1.000000 C
   C          1.0     0.759748      0.743901      0.094618     Biso  1.000000 C
   C          1.0     0.241822      0.768966      0.407080     Biso  1.000000 C
   C          1.0     0.740232      0.756080      0.905385     Biso  1.000000 C
   C          1.0     0.258157      0.730978      0.592893     Biso  1.000000 C
   C          1.0     0.241821      0.231030      0.907081     Biso  1.000000 C
   C          1.0     0.759748      0.256097      0.594619     Biso  1.000000 C
   Pb         1.0     0.994250      0.078423      0.248265     Biso  1.000000 Pb
   Pb         1.0     0.505739      0.578478      0.251738     Biso  1.000000 Pb
   Pb         1.0     0.994250      0.921545      0.748265     Biso  1.000000 Pb
   Pb         1.0     0.505738      0.421549      0.751738     Biso  1.000000 Pb
   O          1.0     0.066667      0.234571      0.033554     Biso  1.000000 O
   O          1.0     0.932892      0.253700      0.472603     Biso  1.000000 O
   O          1.0     0.567089      0.753721      0.027402     Biso  1.000000 O
   O          1.0     0.433319      0.734590      0.466446     Biso  1.000000 O
   O          1.0     0.932892      0.746263      0.972601     Biso  1.000000 O
   O          1.0     0.066665      0.765396      0.533552     Biso  1.000000 O
   O          1.0     0.433318      0.265439      0.966445     Biso  1.000000 O
   O          1.0     0.567089      0.246313      0.527401     Biso  1.000000 O
   O          1.0     0.027934      0.477302      0.270851     Biso  1.000000 O
   O          1.0     0.472046      0.977349      0.229145     Biso  1.000000 O
   O          1.0     0.027933      0.522666      0.770852     Biso  1.000000 O
   O          1.0     0.472045      0.022678      0.729146     Biso  1.000000 O
   H          1.0     0.984069      0.565422      0.145728     Biso  1.000000 H
   H          1.0     0.024419      0.575885      0.371129     Biso  1.000000 H
   H          1.0     0.475557      0.075946      0.128870     Biso  1.000000 H
   H          1.0     0.515903      0.065474      0.354268     Biso  1.000000 H
   H          1.0     0.024418      0.424080      0.871127     Biso  1.000000 H
   H          1.0     0.984071      0.434544      0.645728     Biso  1.000000 H
   H          1.0     0.515905      0.934556      0.854269     Biso  1.000000 H
   H          1.0     0.475556      0.924084      0.628869     Biso  1.000000 H
   N          1.0     0.176867      0.266201      0.140915     Biso  1.000000 N
   N          1.0     0.822349      0.250332      0.360687     Biso  1.000000 N
   N          1.0     0.677632      0.750343      0.139318     Biso  1.000000 N
   N          1.0     0.323119      0.766199      0.359073     Biso  1.000000 N
   N          1.0     0.822348      0.749645      0.860687     Biso  1.000000 N
   N          1.0     0.176866      0.733780      0.640913     Biso  1.000000 N
   N          1.0     0.323118      0.233816      0.859073     Biso  1.000000 N
   N          1.0     0.677632      0.249676      0.639318     Biso  1.000000 N
   N          1.0     0.227697      0.277374      0.333946     Biso  1.000000 N
   N          1.0     0.773133      0.245127      0.167866     Biso  1.000000 N
   N          1.0     0.726849      0.745150      0.332141     Biso  1.000000 N
   N          1.0     0.272296      0.777410      0.166045     Biso  1.000000 N
   N          1.0     0.773133      0.754861      0.667866     Biso  1.000000 N
   N          1.0     0.227696      0.722615      0.833945     Biso  1.000000 N
   N          1.0     0.272295      0.222597      0.666045     Biso  1.000000 N
   N          1.0     0.726849      0.254858      0.832141     Biso  1.000000 N
   N          1.0     0.337782      0.297330      0.401242     Biso  1.000000 N
   N          1.0     0.661695      0.236952      0.096888     Biso  1.000000 N
   N          1.0     0.838287      0.736950      0.403116     Biso  1.000000 N
   N          1.0     0.162209      0.797335      0.098739     Biso  1.000000 N
   N          1.0     0.661695      0.763066      0.596889     Biso  1.000000 N
   N          1.0     0.337782      0.702685      0.901242     Biso  1.000000 N
   N          1.0     0.162209      0.202645      0.598741     Biso  1.000000 N
   N          1.0     0.838287      0.263028      0.903117     Biso  1.000000 N
   N          1.0     0.357876      0.299387      0.256460     Biso  1.000000 N
   N          1.0     0.639823      0.236564      0.239966     Biso  1.000000 N
   N          1.0     0.860158      0.736537      0.260036     Biso  1.000000 N
   N          1.0     0.142106      0.799338      0.243510     Biso  1.000000 N
   N          1.0     0.639823      0.763461      0.739967     Biso  1.000000 N
   N          1.0     0.357877      0.700634      0.756461     Biso  1.000000 N
   N          1.0     0.142107      0.200636      0.743513     Biso  1.000000 N
   N          1.0     0.860158      0.263435      0.760038     Biso  1.000000 N
