#======================================================================

# CRYSTAL DATA

#----------------------------------------------------------------------

data_VESTA_phase_1


_chemical_name_common                  '# Quantum Espresso PWSCF output snapsh'
_cell_length_a                         13.58903
_cell_length_b                         5.47089
_cell_length_c                         8.01664
_cell_angle_alpha                      90.00005
_cell_angle_beta                       121.32001
_cell_angle_gamma                      90.00027
_space_group_name_H-M_alt              'P 1'
_space_group_IT_number                 1

loop_
_space_group_symop_operation_xyz
   'x, y, z'

loop_
   _atom_site_label
   _atom_site_occupancy
   _atom_site_fract_x
   _atom_site_fract_y
   _atom_site_fract_z
   _atom_site_adp_type
   _atom_site_B_iso_or_equiv
   _atom_site_type_symbol
   C          1.0     0.258144      0.269330      0.092934     Biso  1.000000 C
   C          1.0     0.740228      0.243222      0.405331     Biso  1.000000 C
   C          1.0     0.759753      0.743215      0.094662     Biso  1.000000 C
   C          1.0     0.241838      0.769328      0.407062     Biso  1.000000 C
   C          1.0     0.740227      0.756776      0.905330     Biso  1.000000 C
   C          1.0     0.258143      0.730669      0.592932     Biso  1.000000 C
   C          1.0     0.241837      0.230668      0.907060     Biso  1.000000 C
   C          1.0     0.759753      0.256782      0.594663     Biso  1.000000 C
   Pb         1.0     0.993922      0.078074      0.248035     Biso  1.000000 Pb
   Pb         1.0     0.506059      0.578089      0.251958     Biso  1.000000 Pb
   Pb         1.0     0.993922      0.921911      0.748036     Biso  1.000000 Pb
   Pb         1.0     0.506059      0.421922      0.751958     Biso  1.000000 Pb
   O          1.0     0.066399      0.234841      0.033689     Biso  1.000000 O
   O          1.0     0.933159      0.254332      0.472660     Biso  1.000000 O
   O          1.0     0.566822      0.754349      0.027333     Biso  1.000000 O
   O          1.0     0.433583      0.734850      0.466305     Biso  1.000000 O
   O          1.0     0.933159      0.745647      0.972660     Biso  1.000000 O
   O          1.0     0.066398      0.765146      0.533688     Biso  1.000000 O
   O          1.0     0.433583      0.265158      0.966305     Biso  1.000000 O
   O          1.0     0.566821      0.245668      0.527333     Biso  1.000000 O
   O          1.0     0.028575      0.477263      0.271449     Biso  1.000000 O
   O          1.0     0.471407      0.977277      0.228545     Biso  1.000000 O
   O          1.0     0.028575      0.522722      0.771448     Biso  1.000000 O
   O          1.0     0.471406      0.022733      0.728544     Biso  1.000000 O
   H          1.0     0.984279      0.564992      0.145908     Biso  1.000000 H
   H          1.0     0.024376      0.575659      0.371444     Biso  1.000000 H
   H          1.0     0.475605      0.075676      0.128551     Biso  1.000000 H
   H          1.0     0.515700      0.065011      0.354086     Biso  1.000000 H
   H          1.0     0.024376      0.424324      0.871443     Biso  1.000000 H
   H          1.0     0.984280      0.434989      0.645907     Biso  1.000000 H
   H          1.0     0.515701      0.935002      0.854084     Biso  1.000000 H
   H          1.0     0.475605      0.924336      0.628549     Biso  1.000000 H
   N          1.0     0.176761      0.266751      0.141066     Biso  1.000000 N
   N          1.0     0.822460      0.249943      0.360629     Biso  1.000000 N
   N          1.0     0.677522      0.749953      0.139364     Biso  1.000000 N
   N          1.0     0.323221      0.766756      0.358928     Biso  1.000000 N
   N          1.0     0.822459      0.750044      0.860629     Biso  1.000000 N
   N          1.0     0.176760      0.733241      0.641066     Biso  1.000000 N
   N          1.0     0.323220      0.233247      0.858928     Biso  1.000000 N
   N          1.0     0.677521      0.250056      0.639364     Biso  1.000000 N
   N          1.0     0.227703      0.277894      0.334310     Biso  1.000000 N
   N          1.0     0.773217      0.244286      0.167616     Biso  1.000000 N
   N          1.0     0.726764      0.744297      0.332377     Biso  1.000000 N
   N          1.0     0.272279      0.777897      0.165685     Biso  1.000000 N
   N          1.0     0.773217      0.755706      0.667617     Biso  1.000000 N
   N          1.0     0.227703      0.722100      0.834309     Biso  1.000000 N
   N          1.0     0.272278      0.222103      0.665684     Biso  1.000000 N
   N          1.0     0.726764      0.255706      0.832377     Biso  1.000000 N
   N          1.0     0.337963      0.297806      0.401655     Biso  1.000000 N
   N          1.0     0.661586      0.235399      0.096491     Biso  1.000000 N
   N          1.0     0.838395      0.735393      0.403501     Biso  1.000000 N
   N          1.0     0.162019      0.797800      0.098339     Biso  1.000000 N
   N          1.0     0.661586      0.764609      0.596492     Biso  1.000000 N
   N          1.0     0.337962      0.702198      0.901655     Biso  1.000000 N
   N          1.0     0.162019      0.202191      0.598339     Biso  1.000000 N
   N          1.0     0.838395      0.264595      0.903502     Biso  1.000000 N
   N          1.0     0.358022      0.299841      0.256658     Biso  1.000000 N
   N          1.0     0.639679      0.234971      0.239715     Biso  1.000000 N
   N          1.0     0.860301      0.734953      0.260277     Biso  1.000000 N
   N          1.0     0.141959      0.799833      0.243334     Biso  1.000000 N
   N          1.0     0.639680      0.765041      0.739716     Biso  1.000000 N
   N          1.0     0.358022      0.700165      0.756659     Biso  1.000000 N
   N          1.0     0.141959      0.200156      0.743336     Biso  1.000000 N
   N          1.0     0.860301      0.265030      0.760278     Biso  1.000000 N
