#======================================================================

# CRYSTAL DATA

#----------------------------------------------------------------------

data_VESTA_phase_1


_chemical_name_common                  '# Quantum Espresso PWSCF output snapsh'
_cell_length_a                         13.56467
_cell_length_b                         5.45433
_cell_length_c                         8.00567
_cell_angle_alpha                      90.00002
_cell_angle_beta                       121.33031
_cell_angle_gamma                      90.00012
_space_group_name_H-M_alt              'P 1'
_space_group_IT_number                 1

loop_
_space_group_symop_operation_xyz
   'x, y, z'

loop_
   _atom_site_label
   _atom_site_occupancy
   _atom_site_fract_x
   _atom_site_fract_y
   _atom_site_fract_z
   _atom_site_adp_type
   _atom_site_B_iso_or_equiv
   _atom_site_type_symbol
   C          1.0     0.258129      0.269636      0.092963     Biso  1.000000 C
   C          1.0     0.740224      0.242520      0.405284     Biso  1.000000 C
   C          1.0     0.759759      0.742520      0.094708     Biso  1.000000 C
   C          1.0     0.241854      0.769635      0.407031     Biso  1.000000 C
   C          1.0     0.740224      0.757479      0.905284     Biso  1.000000 C
   C          1.0     0.258129      0.730364      0.592962     Biso  1.000000 C
   C          1.0     0.241853      0.230363      0.907031     Biso  1.000000 C
   C          1.0     0.759759      0.257479      0.594709     Biso  1.000000 C
   Pb         1.0     0.993613      0.077721      0.247789     Biso  1.000000 Pb
   Pb         1.0     0.506370      0.577727      0.252204     Biso  1.000000 Pb
   Pb         1.0     0.993613      0.922272      0.747789     Biso  1.000000 Pb
   Pb         1.0     0.506370      0.422278      0.752205     Biso  1.000000 Pb
   O          1.0     0.066138      0.235079      0.033781     Biso  1.000000 O
   O          1.0     0.933415      0.254879      0.472694     Biso  1.000000 O
   O          1.0     0.566568      0.754888      0.027300     Biso  1.000000 O
   O          1.0     0.433845      0.735084      0.466211     Biso  1.000000 O
   O          1.0     0.933416      0.745111      0.972694     Biso  1.000000 O
   O          1.0     0.066138      0.764915      0.533782     Biso  1.000000 O
   O          1.0     0.433843      0.264920      0.966210     Biso  1.000000 O
   O          1.0     0.566568      0.245120      0.527299     Biso  1.000000 O
   O          1.0     0.029177      0.477224      0.271968     Biso  1.000000 O
   O          1.0     0.470807      0.977230      0.228026     Biso  1.000000 O
   O          1.0     0.029176      0.522769      0.771968     Biso  1.000000 O
   O          1.0     0.470806      0.022775      0.728024     Biso  1.000000 O
   H          1.0     0.984473      0.564581      0.146021     Biso  1.000000 H
   H          1.0     0.024326      0.575448      0.371687     Biso  1.000000 H
   H          1.0     0.475657      0.075455      0.128307     Biso  1.000000 H
   H          1.0     0.515510      0.064588      0.353972     Biso  1.000000 H
   H          1.0     0.024326      0.424545      0.871686     Biso  1.000000 H
   H          1.0     0.984473      0.435411      0.646021     Biso  1.000000 H
   H          1.0     0.515510      0.935418      0.853972     Biso  1.000000 H
   H          1.0     0.475657      0.924551      0.628306     Biso  1.000000 H
   N          1.0     0.176660      0.267255      0.141197     Biso  1.000000 N
   N          1.0     0.822563      0.249502      0.360569     Biso  1.000000 N
   N          1.0     0.677420      0.749507      0.139424     Biso  1.000000 N
   N          1.0     0.323326      0.767257      0.358797     Biso  1.000000 N
   N          1.0     0.822561      0.750493      0.860568     Biso  1.000000 N
   N          1.0     0.176658      0.732742      0.641196     Biso  1.000000 N
   N          1.0     0.323327      0.232745      0.858799     Biso  1.000000 N
   N          1.0     0.677420      0.250497      0.639425     Biso  1.000000 N
   N          1.0     0.227704      0.278323      0.334648     Biso  1.000000 N
   N          1.0     0.773287      0.243407      0.167367     Biso  1.000000 N
   N          1.0     0.726697      0.743410      0.332626     Biso  1.000000 N
   N          1.0     0.272280      0.778325      0.165345     Biso  1.000000 N
   N          1.0     0.773287      0.756590      0.667368     Biso  1.000000 N
   N          1.0     0.227703      0.721675      0.834648     Biso  1.000000 N
   N          1.0     0.272279      0.221676      0.665344     Biso  1.000000 N
   N          1.0     0.726696      0.256592      0.832626     Biso  1.000000 N
   N          1.0     0.338135      0.298208      0.402056     Biso  1.000000 N
   N          1.0     0.661470      0.233864      0.096110     Biso  1.000000 N
   N          1.0     0.838513      0.733859      0.403883     Biso  1.000000 N
   N          1.0     0.161849      0.798205      0.097936     Biso  1.000000 N
   N          1.0     0.661470      0.766140      0.596111     Biso  1.000000 N
   N          1.0     0.338134      0.701794      0.902057     Biso  1.000000 N
   N          1.0     0.161848      0.201791      0.597936     Biso  1.000000 N
   N          1.0     0.838513      0.266135      0.903883     Biso  1.000000 N
   N          1.0     0.358163      0.300276      0.256855     Biso  1.000000 N
   N          1.0     0.639539      0.233418      0.239487     Biso  1.000000 N
   N          1.0     0.860444      0.733411      0.260506     Biso  1.000000 N
   N          1.0     0.141820      0.800271      0.243137     Biso  1.000000 N
   N          1.0     0.639539      0.766588      0.739487     Biso  1.000000 N
   N          1.0     0.358163      0.699728      0.756855     Biso  1.000000 N
   N          1.0     0.141820      0.199723      0.743138     Biso  1.000000 N
   N          1.0     0.860444      0.266582      0.760506     Biso  1.000000 N
