#======================================================================

# CRYSTAL DATA

#----------------------------------------------------------------------

data_VESTA_phase_1


_chemical_name_common                  '# Quantum Espresso PWSCF output snapsh'
_cell_length_a                         13.51795
_cell_length_b                         5.42238
_cell_length_c                         7.98455
_cell_angle_alpha                      89.99998
_cell_angle_beta                       121.34976
_cell_angle_gamma                      90.00001
_space_group_name_H-M_alt              'P 1'
_space_group_IT_number                 1

loop_
_space_group_symop_operation_xyz
   'x, y, z'

loop_
   _atom_site_label
   _atom_site_occupancy
   _atom_site_fract_x
   _atom_site_fract_y
   _atom_site_fract_z
   _atom_site_adp_type
   _atom_site_B_iso_or_equiv
   _atom_site_type_symbol
   C          1.0     0.258096      0.270212      0.093016     Biso  1.000000 C
   C          1.0     0.740216      0.241225      0.405204     Biso  1.000000 C
   C          1.0     0.759759      0.741225      0.094786     Biso  1.000000 C
   C          1.0     0.241879      0.770212      0.406969     Biso  1.000000 C
   C          1.0     0.740215      0.758774      0.905201     Biso  1.000000 C
   C          1.0     0.258096      0.729786      0.593018     Biso  1.000000 C
   C          1.0     0.241879      0.229786      0.906972     Biso  1.000000 C
   C          1.0     0.759758      0.258773      0.594784     Biso  1.000000 C
   Pb         1.0     0.993026      0.077015      0.247315     Biso  1.000000 Pb
   Pb         1.0     0.506948      0.577016      0.252672     Biso  1.000000 Pb
   Pb         1.0     0.993026      0.922983      0.747315     Biso  1.000000 Pb
   Pb         1.0     0.506948      0.422984      0.752672     Biso  1.000000 Pb
   O          1.0     0.065633      0.235540      0.033949     Biso  1.000000 O
   O          1.0     0.933901      0.255858      0.472757     Biso  1.000000 O
   O          1.0     0.566074      0.755860      0.027231     Biso  1.000000 O
   O          1.0     0.434342      0.735541      0.466039     Biso  1.000000 O
   O          1.0     0.933901      0.744139      0.972757     Biso  1.000000 O
   O          1.0     0.065632      0.764458      0.533949     Biso  1.000000 O
   O          1.0     0.434342      0.264459      0.966039     Biso  1.000000 O
   O          1.0     0.566074      0.244140      0.527231     Biso  1.000000 O
   O          1.0     0.030254      0.477157      0.272911     Biso  1.000000 O
   O          1.0     0.469721      0.977158      0.227077     Biso  1.000000 O
   O          1.0     0.030254      0.522841      0.772911     Biso  1.000000 O
   O          1.0     0.469720      0.022842      0.727076     Biso  1.000000 O
   H          1.0     0.984818      0.563855      0.146209     Biso  1.000000 H
   H          1.0     0.024201      0.575038      0.372126     Biso  1.000000 H
   H          1.0     0.475773      0.075039      0.127862     Biso  1.000000 H
   H          1.0     0.515156      0.063857      0.353778     Biso  1.000000 H
   H          1.0     0.024201      0.424959      0.872126     Biso  1.000000 H
   H          1.0     0.984818      0.436142      0.646209     Biso  1.000000 H
   H          1.0     0.515156      0.936143      0.853778     Biso  1.000000 H
   H          1.0     0.475773      0.924961      0.627862     Biso  1.000000 H
   N          1.0     0.176449      0.268224      0.141434     Biso  1.000000 N
   N          1.0     0.822758      0.248675      0.360459     Biso  1.000000 N
   N          1.0     0.677217      0.748676      0.139528     Biso  1.000000 N
   N          1.0     0.323524      0.768225      0.358553     Biso  1.000000 N
   N          1.0     0.822757      0.751323      0.860459     Biso  1.000000 N
   N          1.0     0.176449      0.731773      0.641434     Biso  1.000000 N
   N          1.0     0.323524      0.231774      0.858553     Biso  1.000000 N
   N          1.0     0.677216      0.251323      0.639528     Biso  1.000000 N
   N          1.0     0.227691      0.279134      0.335288     Biso  1.000000 N
   N          1.0     0.773421      0.241826      0.166894     Biso  1.000000 N
   N          1.0     0.726554      0.741826      0.333093     Biso  1.000000 N
   N          1.0     0.272284      0.779134      0.164700     Biso  1.000000 N
   N          1.0     0.773421      0.758172      0.666894     Biso  1.000000 N
   N          1.0     0.227691      0.720864      0.835288     Biso  1.000000 N
   N          1.0     0.272283      0.220865      0.664700     Biso  1.000000 N
   N          1.0     0.726553      0.258173      0.833094     Biso  1.000000 N
   N          1.0     0.338453      0.298941      0.402827     Biso  1.000000 N
   N          1.0     0.661249      0.231102      0.095384     Biso  1.000000 N
   N          1.0     0.838725      0.731101      0.404603     Biso  1.000000 N
   N          1.0     0.161522      0.798940      0.097161     Biso  1.000000 N
   N          1.0     0.661249      0.768897      0.595384     Biso  1.000000 N
   N          1.0     0.338453      0.701058      0.902827     Biso  1.000000 N
   N          1.0     0.161521      0.201058      0.597161     Biso  1.000000 N
   N          1.0     0.838725      0.268897      0.904603     Biso  1.000000 N
   N          1.0     0.358424      0.301072      0.257234     Biso  1.000000 N
   N          1.0     0.639270      0.230596      0.239055     Biso  1.000000 N
   N          1.0     0.860704      0.730595      0.260932     Biso  1.000000 N
   N          1.0     0.141551      0.801070      0.242754     Biso  1.000000 N
   N          1.0     0.639270      0.769404      0.739056     Biso  1.000000 N
   N          1.0     0.358423      0.698928      0.757233     Biso  1.000000 N
   N          1.0     0.141551      0.198927      0.742754     Biso  1.000000 N
   N          1.0     0.860704      0.269403      0.760933     Biso  1.000000 N
