#======================================================================

# CRYSTAL DATA

#----------------------------------------------------------------------

data_VESTA_phase_1


_chemical_name_common                  '# Quantum Espresso PWSCF output snapsh'
_cell_length_a                         14.41886
_cell_length_b                         6.13661
_cell_length_c                         8.39438
_cell_angle_alpha                      90.00002
_cell_angle_beta                       121.54265
_cell_angle_gamma                      90
_space_group_name_H-M_alt              'P 1'
_space_group_IT_number                 1

loop_
_space_group_symop_operation_xyz
   'x, y, z'

loop_
   _atom_site_label
   _atom_site_occupancy
   _atom_site_fract_x
   _atom_site_fract_y
   _atom_site_fract_z
   _atom_site_adp_type
   _atom_site_B_iso_or_equiv
   _atom_site_type_symbol
   C          1.0     0.258730      0.261918      0.091242     Biso  1.000000 C
   C          1.0     0.741263      0.261916      0.408762     Biso  1.000000 C
   C          1.0     0.758728      0.761919      0.091233     Biso  1.000000 C
   C          1.0     0.241268      0.761922      0.408759     Biso  1.000000 C
   C          1.0     0.741266      0.738083      0.908758     Biso  1.000000 C
   C          1.0     0.258731      0.738084      0.591236     Biso  1.000000 C
   C          1.0     0.241266      0.238081      0.908764     Biso  1.000000 C
   C          1.0     0.758727      0.238080      0.591239     Biso  1.000000 C
   Pb         1.0     1.000000      0.092167      0.250000     Biso  1.000000 Pb
   Pb         1.0     0.499997      0.592166      0.249999     Biso  1.000000 Pb
   Pb         1.0     1.000000      0.907833      0.749999     Biso  1.000000 Pb
   Pb         1.0     0.499998      0.407834      0.750000     Biso  1.000000 Pb
   O          1.0     0.074914      0.225378      0.026893     Biso  1.000000 O
   O          1.0     0.925079      0.225378      0.473108     Biso  1.000000 O
   O          1.0     0.574914      0.725379      0.026889     Biso  1.000000 O
   O          1.0     0.425083      0.725380      0.473106     Biso  1.000000 O
   O          1.0     0.925081      0.774622      0.973105     Biso  1.000000 O
   O          1.0     0.074916      0.774622      0.526890     Biso  1.000000 O
   O          1.0     0.425081      0.274622      0.973109     Biso  1.000000 O
   O          1.0     0.574912      0.274621      0.526892     Biso  1.000000 O
   O          1.0     1.000000      0.480113      0.249999     Biso  1.000000 O
   O          1.0     0.499997      0.980112      0.249999     Biso  1.000000 O
   O          1.0    -0.000000      0.519887      0.750000     Biso  1.000000 O
   O          1.0     0.499997      0.019888      0.749999     Biso  1.000000 O
   H          1.0     0.977539      0.577627      0.141815     Biso  1.000000 H
   H          1.0     0.022457      0.577629      0.358183     Biso  1.000000 H
   H          1.0     0.477539      0.077628      0.141816     Biso  1.000000 H
   H          1.0     0.522454      0.077627      0.358183     Biso  1.000000 H
   H          1.0     0.022456      0.422373      0.858183     Biso  1.000000 H
   H          1.0     0.977539      0.422371      0.641815     Biso  1.000000 H
   H          1.0     0.522456      0.922373      0.858183     Biso  1.000000 H
   H          1.0     0.477540      0.922373      0.641816     Biso  1.000000 H
   N          1.0     0.180314      0.251786      0.134799     Biso  1.000000 N
   N          1.0     0.819681      0.251784      0.365204     Biso  1.000000 N
   N          1.0     0.680314      0.751786      0.134794     Biso  1.000000 N
   N          1.0     0.319682      0.751787      0.365200     Biso  1.000000 N
   N          1.0     0.819681      0.748215      0.865198     Biso  1.000000 N
   N          1.0     0.180314      0.748216      0.634795     Biso  1.000000 N
   N          1.0     0.319682      0.248215      0.865205     Biso  1.000000 N
   N          1.0     0.680312      0.248214      0.634798     Biso  1.000000 N
   N          1.0     0.228399      0.267357      0.321710     Biso  1.000000 N
   N          1.0     0.771594      0.267355      0.178294     Biso  1.000000 N
   N          1.0     0.728400      0.767353      0.321704     Biso  1.000000 N
   N          1.0     0.271597      0.767355      0.178290     Biso  1.000000 N
   N          1.0     0.771595      0.732644      0.678289     Biso  1.000000 N
   N          1.0     0.228401      0.732645      0.821705     Biso  1.000000 N
   N          1.0     0.271594      0.232647      0.678294     Biso  1.000000 N
   N          1.0     0.728399      0.232646      0.821709     Biso  1.000000 N
   N          1.0     0.333203      0.291579      0.388207     Biso  1.000000 N
   N          1.0     0.666790      0.291577      0.111796     Biso  1.000000 N
   N          1.0     0.833203      0.791576      0.388200     Biso  1.000000 N
   N          1.0     0.166793      0.791578      0.111794     Biso  1.000000 N
   N          1.0     0.666792      0.708422      0.611791     Biso  1.000000 N
   N          1.0     0.333205      0.708423      0.888202     Biso  1.000000 N
   N          1.0     0.166790      0.208424      0.611798     Biso  1.000000 N
   N          1.0     0.833202      0.208423      0.888205     Biso  1.000000 N
   N          1.0     0.354053      0.292340      0.250151     Biso  1.000000 N
   N          1.0     0.645941      0.292339      0.249852     Biso  1.000000 N
   N          1.0     0.854052      0.792340      0.250143     Biso  1.000000 N
   N          1.0     0.145945      0.792342      0.249851     Biso  1.000000 N
   N          1.0     0.645942      0.707660      0.749847     Biso  1.000000 N
   N          1.0     0.354054      0.707661      0.750146     Biso  1.000000 N
   N          1.0     0.145943      0.207660      0.749855     Biso  1.000000 N
   N          1.0     0.854051      0.207659      0.750147     Biso  1.000000 N
