#======================================================================

# CRYSTAL DATA

#----------------------------------------------------------------------

data_VESTA_phase_1


_chemical_name_common                  '# Quantum Espresso PWSCF output snapsh'
_cell_length_a                         14.36634
_cell_length_b                         6.08229
_cell_length_c                         8.36689
_cell_angle_alpha                      89.99998
_cell_angle_beta                       121.47210
_cell_angle_gamma                      89.99999
_space_group_name_H-M_alt              'P 1'
_space_group_IT_number                 1

loop_
_space_group_symop_operation_xyz
   'x, y, z'

loop_
   _atom_site_label
   _atom_site_occupancy
   _atom_site_fract_x
   _atom_site_fract_y
   _atom_site_fract_z
   _atom_site_adp_type
   _atom_site_B_iso_or_equiv
   _atom_site_type_symbol
   C          1.0     0.258746      0.261744      0.091472     Biso  1.000000 C
   C          1.0     0.741249      0.261743      0.408539     Biso  1.000000 C
   C          1.0     0.758745      0.761746      0.091461     Biso  1.000000 C
   C          1.0     0.241253      0.761748      0.408533     Biso  1.000000 C
   C          1.0     0.741251      0.738256      0.908531     Biso  1.000000 C
   C          1.0     0.258747      0.738258      0.591464     Biso  1.000000 C
   C          1.0     0.241252      0.238254      0.908539     Biso  1.000000 C
   C          1.0     0.758743      0.238253      0.591468     Biso  1.000000 C
   Pb         1.0    -0.000002      0.091030      0.250002     Biso  1.000000 Pb
   Pb         1.0     0.499998      0.591029      0.250000     Biso  1.000000 Pb
   Pb         1.0    -0.000002      0.908970      0.750000     Biso  1.000000 Pb
   Pb         1.0     0.499998      0.408971      0.750001     Biso  1.000000 Pb
   O          1.0     0.074418      0.226778      0.027259     Biso  1.000000 O
   O          1.0     0.925577      0.226778      0.472747     Biso  1.000000 O
   O          1.0     0.574417      0.726779      0.027255     Biso  1.000000 O
   O          1.0     0.425580      0.726779      0.472742     Biso  1.000000 O
   O          1.0     0.925579      0.773223      0.972743     Biso  1.000000 O
   O          1.0     0.074419      0.773223      0.527255     Biso  1.000000 O
   O          1.0     0.425579      0.273222      0.972747     Biso  1.000000 O
   O          1.0     0.574416      0.273221      0.527259     Biso  1.000000 O
   O          1.0    -0.000001      0.479846      0.250001     Biso  1.000000 O
   O          1.0     0.499997      0.979846      0.250001     Biso  1.000000 O
   O          1.0    -0.000002      0.520154      0.750002     Biso  1.000000 O
   O          1.0     0.499999      0.020155      0.750001     Biso  1.000000 O
   H          1.0     0.977520      0.577906      0.141324     Biso  1.000000 H
   H          1.0     0.022479      0.577907      0.358677     Biso  1.000000 H
   H          1.0     0.477519      0.077906      0.141325     Biso  1.000000 H
   H          1.0     0.522476      0.077905      0.358678     Biso  1.000000 H
   H          1.0     0.022477      0.422094      0.858678     Biso  1.000000 H
   H          1.0     0.977518      0.422094      0.641325     Biso  1.000000 H
   H          1.0     0.522477      0.922095      0.858676     Biso  1.000000 H
   H          1.0     0.477521      0.922096      0.641324     Biso  1.000000 H
   N          1.0     0.180094      0.252683      0.135245     Biso  1.000000 N
   N          1.0     0.819901      0.252681      0.364762     Biso  1.000000 N
   N          1.0     0.680094      0.752682      0.135240     Biso  1.000000 N
   N          1.0     0.319905      0.752684      0.364757     Biso  1.000000 N
   N          1.0     0.819903      0.747318      0.864756     Biso  1.000000 N
   N          1.0     0.180095      0.747319      0.635240     Biso  1.000000 N
   N          1.0     0.319902      0.247318      0.864762     Biso  1.000000 N
   N          1.0     0.680092      0.247316      0.635245     Biso  1.000000 N
   N          1.0     0.228256      0.267422      0.322565     Biso  1.000000 N
   N          1.0     0.771738      0.267420      0.177443     Biso  1.000000 N
   N          1.0     0.728258      0.767418      0.322559     Biso  1.000000 N
   N          1.0     0.271740      0.767420      0.177437     Biso  1.000000 N
   N          1.0     0.771740      0.732579      0.677437     Biso  1.000000 N
   N          1.0     0.228259      0.732580      0.822559     Biso  1.000000 N
   N          1.0     0.271739      0.232582      0.677443     Biso  1.000000 N
   N          1.0     0.728256      0.232581      0.822565     Biso  1.000000 N
   N          1.0     0.333453      0.290107      0.389218     Biso  1.000000 N
   N          1.0     0.666542      0.290105      0.110790     Biso  1.000000 N
   N          1.0     0.833454      0.790103      0.389210     Biso  1.000000 N
   N          1.0     0.166544      0.790105      0.110785     Biso  1.000000 N
   N          1.0     0.666544      0.709894      0.610784     Biso  1.000000 N
   N          1.0     0.333455      0.709895      0.889212     Biso  1.000000 N
   N          1.0     0.166542      0.209897      0.610792     Biso  1.000000 N
   N          1.0     0.833452      0.209896      0.889217     Biso  1.000000 N
   N          1.0     0.354358      0.290736      0.250752     Biso  1.000000 N
   N          1.0     0.645637      0.290733      0.249257     Biso  1.000000 N
   N          1.0     0.854358      0.790735      0.250743     Biso  1.000000 N
   N          1.0     0.145641      0.790737      0.249253     Biso  1.000000 N
   N          1.0     0.645639      0.709265      0.749250     Biso  1.000000 N
   N          1.0     0.354359      0.709267      0.750745     Biso  1.000000 N
   N          1.0     0.145639      0.209265      0.749260     Biso  1.000000 N
   N          1.0     0.854356      0.209265      0.750750     Biso  1.000000 N
