#======================================================================

# CRYSTAL DATA

#----------------------------------------------------------------------

data_VESTA_phase_1


_chemical_name_common                  '# Quantum Espresso PWSCF output snapsh'
_cell_length_a                         14.26826
_cell_length_b                         5.98849
_cell_length_c                         8.31829
_cell_angle_alpha                      90.00002
_cell_angle_beta                       121.36191
_cell_angle_gamma                      90
_space_group_name_H-M_alt              'P 1'
_space_group_IT_number                 1

loop_
_space_group_symop_operation_xyz
   'x, y, z'

loop_
   _atom_site_label
   _atom_site_occupancy
   _atom_site_fract_x
   _atom_site_fract_y
   _atom_site_fract_z
   _atom_site_adp_type
   _atom_site_B_iso_or_equiv
   _atom_site_type_symbol
   C          1.0     0.258767      0.261409      0.091858     Biso  1.000000 C
   C          1.0     0.741229      0.261408      0.408147     Biso  1.000000 C
   C          1.0     0.758766      0.761410      0.091850     Biso  1.000000 C
   C          1.0     0.241230      0.761412      0.408147     Biso  1.000000 C
   C          1.0     0.741229      0.738591      0.908143     Biso  1.000000 C
   C          1.0     0.258766      0.738593      0.591854     Biso  1.000000 C
   C          1.0     0.241230      0.238590      0.908149     Biso  1.000000 C
   C          1.0     0.758765      0.238589      0.591852     Biso  1.000000 C
   Pb         1.0    -0.000001      0.089066      0.250000     Biso  1.000000 Pb
   Pb         1.0     0.499998      0.589065      0.250000     Biso  1.000000 Pb
   Pb         1.0    -0.000000      0.910934      0.750000     Biso  1.000000 Pb
   Pb         1.0     0.499997      0.410935      0.749999     Biso  1.000000 Pb
   O          1.0     0.073464      0.229252      0.027850     Biso  1.000000 O
   O          1.0     0.926531      0.229252      0.472151     Biso  1.000000 O
   O          1.0     0.573463      0.729253      0.027848     Biso  1.000000 O
   O          1.0     0.426533      0.729252      0.472151     Biso  1.000000 O
   O          1.0     0.926532      0.770749      0.972150     Biso  1.000000 O
   O          1.0     0.073463      0.770750      0.527849     Biso  1.000000 O
   O          1.0     0.426532      0.270748      0.972152     Biso  1.000000 O
   O          1.0     0.573462      0.270748      0.527848     Biso  1.000000 O
   O          1.0     0.000002      0.479367      0.250000     Biso  1.000000 O
   O          1.0     0.499996      0.979367      0.250000     Biso  1.000000 O
   O          1.0    -0.000001      0.520633      0.750001     Biso  1.000000 O
   O          1.0     0.499998      0.020635      0.750000     Biso  1.000000 O
   H          1.0     0.977547      0.578315      0.140442     Biso  1.000000 H
   H          1.0     0.022449      0.578316      0.359558     Biso  1.000000 H
   H          1.0     0.477547      0.078316      0.140442     Biso  1.000000 H
   H          1.0     0.522447      0.078315      0.359558     Biso  1.000000 H
   H          1.0     0.022449      0.421685      0.859559     Biso  1.000000 H
   H          1.0     0.977546      0.421685      0.640442     Biso  1.000000 H
   H          1.0     0.522448      0.921685      0.859557     Biso  1.000000 H
   H          1.0     0.477548      0.921686      0.640442     Biso  1.000000 H
   N          1.0     0.179673      0.254253      0.136000     Biso  1.000000 N
   N          1.0     0.820322      0.254251      0.364001     Biso  1.000000 N
   N          1.0     0.679672      0.754252      0.135996     Biso  1.000000 N
   N          1.0     0.320323      0.754254      0.364001     Biso  1.000000 N
   N          1.0     0.820322      0.745748      0.863999     Biso  1.000000 N
   N          1.0     0.179673      0.745748      0.635999     Biso  1.000000 N
   N          1.0     0.320323      0.245748      0.864004     Biso  1.000000 N
   N          1.0     0.679673      0.245746      0.635999     Biso  1.000000 N
   N          1.0     0.227979      0.267514      0.324044     Biso  1.000000 N
   N          1.0     0.772015      0.267513      0.175959     Biso  1.000000 N
   N          1.0     0.727980      0.767511      0.324039     Biso  1.000000 N
   N          1.0     0.272016      0.767512      0.175959     Biso  1.000000 N
   N          1.0     0.772015      0.732487      0.675957     Biso  1.000000 N
   N          1.0     0.227979      0.732487      0.824041     Biso  1.000000 N
   N          1.0     0.272016      0.232489      0.675961     Biso  1.000000 N
   N          1.0     0.727979      0.232489      0.824041     Biso  1.000000 N
   N          1.0     0.333910      0.287465      0.391009     Biso  1.000000 N
   N          1.0     0.666086      0.287464      0.108994     Biso  1.000000 N
   N          1.0     0.833910      0.787462      0.391004     Biso  1.000000 N
   N          1.0     0.166085      0.787464      0.108994     Biso  1.000000 N
   N          1.0     0.666086      0.712536      0.608991     Biso  1.000000 N
   N          1.0     0.333910      0.712536      0.891007     Biso  1.000000 N
   N          1.0     0.166085      0.212538      0.608997     Biso  1.000000 N
   N          1.0     0.833909      0.212537      0.891006     Biso  1.000000 N
   N          1.0     0.354917      0.287839      0.251831     Biso  1.000000 N
   N          1.0     0.645078      0.287837      0.248172     Biso  1.000000 N
   N          1.0     0.854917      0.787838      0.251824     Biso  1.000000 N
   N          1.0     0.145079      0.787842      0.248174     Biso  1.000000 N
   N          1.0     0.645078      0.712162      0.748169     Biso  1.000000 N
   N          1.0     0.354917      0.712163      0.751828     Biso  1.000000 N
   N          1.0     0.145079      0.212162      0.748177     Biso  1.000000 N
   N          1.0     0.854916      0.212160      0.751827     Biso  1.000000 N
