#======================================================================

# CRYSTAL DATA

#----------------------------------------------------------------------

data_VESTA_phase_1


_chemical_name_common                  '# Quantum Espresso PWSCF output snapsh'
_cell_length_a                         14.22230
_cell_length_b                         5.94728
_cell_length_c                         8.29674
_cell_angle_alpha                      90.00002
_cell_angle_beta                       121.31889
_cell_angle_gamma                      90
_space_group_name_H-M_alt              'P 1'
_space_group_IT_number                 1

loop_
_space_group_symop_operation_xyz
   'x, y, z'

loop_
   _atom_site_label
   _atom_site_occupancy
   _atom_site_fract_x
   _atom_site_fract_y
   _atom_site_fract_z
   _atom_site_adp_type
   _atom_site_B_iso_or_equiv
   _atom_site_type_symbol
   C          1.0     0.258770      0.261257      0.092021     Biso  1.000000 C
   C          1.0     0.741224      0.261256      0.407982     Biso  1.000000 C
   C          1.0     0.758768      0.761258      0.092016     Biso  1.000000 C
   C          1.0     0.241225      0.761260      0.407983     Biso  1.000000 C
   C          1.0     0.741224      0.738743      0.907981     Biso  1.000000 C
   C          1.0     0.258769      0.738745      0.592019     Biso  1.000000 C
   C          1.0     0.241225      0.238742      0.907983     Biso  1.000000 C
   C          1.0     0.758768      0.238741      0.592017     Biso  1.000000 C
   Pb         1.0     0.999998      0.088207      0.250000     Biso  1.000000 Pb
   Pb         1.0     0.499997      0.588206      0.250000     Biso  1.000000 Pb
   Pb         1.0    -0.000001      0.911793      0.750001     Biso  1.000000 Pb
   Pb         1.0     0.499996      0.411794      0.750000     Biso  1.000000 Pb
   O          1.0     0.073002      0.230348      0.028090     Biso  1.000000 O
   O          1.0     0.926992      0.230347      0.471911     Biso  1.000000 O
   O          1.0     0.573000      0.730348      0.028090     Biso  1.000000 O
   O          1.0     0.426993      0.730348      0.471910     Biso  1.000000 O
   O          1.0     0.926992      0.769653      0.971910     Biso  1.000000 O
   O          1.0     0.073000      0.769655      0.528090     Biso  1.000000 O
   O          1.0     0.426993      0.269653      0.971911     Biso  1.000000 O
   O          1.0     0.573000      0.269652      0.528089     Biso  1.000000 O
   O          1.0     0.000001      0.479177      0.250001     Biso  1.000000 O
   O          1.0     0.499995      0.979177      0.250000     Biso  1.000000 O
   O          1.0     0.999998      0.520823      0.750000     Biso  1.000000 O
   O          1.0     0.499997      0.020824      0.750000     Biso  1.000000 O
   H          1.0     0.977602      0.578495      0.140052     Biso  1.000000 H
   H          1.0     0.022392      0.578496      0.359949     Biso  1.000000 H
   H          1.0     0.477602      0.078495      0.140052     Biso  1.000000 H
   H          1.0     0.522391      0.078495      0.359949     Biso  1.000000 H
   H          1.0     0.022392      0.421505      0.859950     Biso  1.000000 H
   H          1.0     0.977601      0.421505      0.640052     Biso  1.000000 H
   H          1.0     0.522391      0.921506      0.859948     Biso  1.000000 H
   H          1.0     0.477602      0.921506      0.640051     Biso  1.000000 H
   N          1.0     0.179466      0.254963      0.136316     Biso  1.000000 N
   N          1.0     0.820526      0.254961      0.363685     Biso  1.000000 N
   N          1.0     0.679466      0.754962      0.136315     Biso  1.000000 N
   N          1.0     0.320528      0.754963      0.363685     Biso  1.000000 N
   N          1.0     0.820527      0.745038      0.863684     Biso  1.000000 N
   N          1.0     0.179467      0.745038      0.636316     Biso  1.000000 N
   N          1.0     0.320527      0.245038      0.863686     Biso  1.000000 N
   N          1.0     0.679466      0.245037      0.636316     Biso  1.000000 N
   N          1.0     0.227838      0.267574      0.324678     Biso  1.000000 N
   N          1.0     0.772153      0.267573      0.175324     Biso  1.000000 N
   N          1.0     0.727840      0.767571      0.324676     Biso  1.000000 N
   N          1.0     0.272154      0.767572      0.175324     Biso  1.000000 N
   N          1.0     0.772154      0.732427      0.675323     Biso  1.000000 N
   N          1.0     0.227838      0.732427      0.824677     Biso  1.000000 N
   N          1.0     0.272154      0.232429      0.675324     Biso  1.000000 N
   N          1.0     0.727839      0.232429      0.824677     Biso  1.000000 N
   N          1.0     0.334114      0.286302      0.391799     Biso  1.000000 N
   N          1.0     0.665879      0.286300      0.108203     Biso  1.000000 N
   N          1.0     0.834114      0.786298      0.391796     Biso  1.000000 N
   N          1.0     0.165879      0.786300      0.108204     Biso  1.000000 N
   N          1.0     0.665880      0.713699      0.608202     Biso  1.000000 N
   N          1.0     0.334114      0.713700      0.891798     Biso  1.000000 N
   N          1.0     0.165879      0.213702      0.608205     Biso  1.000000 N
   N          1.0     0.834113      0.213701      0.891797     Biso  1.000000 N
   N          1.0     0.355169      0.286547      0.252313     Biso  1.000000 N
   N          1.0     0.644823      0.286545      0.247689     Biso  1.000000 N
   N          1.0     0.855169      0.786546      0.252309     Biso  1.000000 N
   N          1.0     0.144825      0.786550      0.247691     Biso  1.000000 N
   N          1.0     0.644823      0.713454      0.747688     Biso  1.000000 N
   N          1.0     0.355170      0.713455      0.752312     Biso  1.000000 N
   N          1.0     0.144825      0.213454      0.747692     Biso  1.000000 N
   N          1.0     0.855168      0.213452      0.752311     Biso  1.000000 N
