#======================================================================

# CRYSTAL DATA

#----------------------------------------------------------------------

data_VESTA_phase_1


_chemical_name_common                  '# Quantum Espresso PWSCF output snapsh'
_cell_length_a                         14.17771
_cell_length_b                         5.90942
_cell_length_c                         8.27623
_cell_angle_alpha                      90
_cell_angle_beta                       121.27974
_cell_angle_gamma                      90
_space_group_name_H-M_alt              'P 1'
_space_group_IT_number                 1

loop_
_space_group_symop_operation_xyz
   'x, y, z'

loop_
   _atom_site_label
   _atom_site_occupancy
   _atom_site_fract_x
   _atom_site_fract_y
   _atom_site_fract_z
   _atom_site_adp_type
   _atom_site_B_iso_or_equiv
   _atom_site_type_symbol
   C          1.0     0.258766      0.261126      0.092165     Biso  1.000000 C
   C          1.0     0.741207      0.261069      0.407808     Biso  1.000000 C
   C          1.0     0.758764      0.761127      0.092162     Biso  1.000000 C
   C          1.0     0.241209      0.761074      0.407809     Biso  1.000000 C
   C          1.0     0.741207      0.738930      0.907808     Biso  1.000000 C
   C          1.0     0.258766      0.738876      0.592163     Biso  1.000000 C
   C          1.0     0.241209      0.238928      0.907809     Biso  1.000000 C
   C          1.0     0.758765      0.238872      0.592163     Biso  1.000000 C
   Pb         1.0     1.000034      0.087395      0.250128     Biso  1.000000 Pb
   Pb         1.0     0.500035      0.587395      0.250128     Biso  1.000000 Pb
   Pb         1.0     1.000036      0.912605      0.750130     Biso  1.000000 Pb
   Pb         1.0     0.500035      0.412605      0.750129     Biso  1.000000 Pb
   O          1.0     0.072553      0.231357      0.028329     Biso  1.000000 O
   O          1.0     0.927429      0.231355      0.471703     Biso  1.000000 O
   O          1.0     0.572551      0.731358      0.028330     Biso  1.000000 O
   O          1.0     0.427430      0.731356      0.471702     Biso  1.000000 O
   O          1.0     0.927429      0.768645      0.971702     Biso  1.000000 O
   O          1.0     0.072551      0.768646      0.528329     Biso  1.000000 O
   O          1.0     0.427431      0.268645      0.971703     Biso  1.000000 O
   O          1.0     0.572552      0.268642      0.528329     Biso  1.000000 O
   O          1.0     0.000042      0.478986      0.250017     Biso  1.000000 O
   O          1.0     0.500038      0.978986      0.250015     Biso  1.000000 O
   O          1.0     1.000040      0.521014      0.750016     Biso  1.000000 O
   O          1.0     0.500041      0.021015      0.750016     Biso  1.000000 O
   H          1.0     0.977639      0.578552      0.139626     Biso  1.000000 H
   H          1.0     0.022325      0.578707      0.360269     Biso  1.000000 H
   H          1.0     0.477639      0.078552      0.139627     Biso  1.000000 H
   H          1.0     0.522324      0.078707      0.360269     Biso  1.000000 H
   H          1.0     0.022325      0.421294      0.860270     Biso  1.000000 H
   H          1.0     0.977639      0.421448      0.639627     Biso  1.000000 H
   H          1.0     0.522324      0.921294      0.860268     Biso  1.000000 H
   H          1.0     0.477640      0.921449      0.639626     Biso  1.000000 H
   N          1.0     0.179267      0.255602      0.136621     Biso  1.000000 N
   N          1.0     0.820716      0.255577      0.363377     Biso  1.000000 N
   N          1.0     0.679266      0.755602      0.136620     Biso  1.000000 N
   N          1.0     0.320717      0.755580      0.363376     Biso  1.000000 N
   N          1.0     0.820717      0.744422      0.863377     Biso  1.000000 N
   N          1.0     0.179269      0.744399      0.636621     Biso  1.000000 N
   N          1.0     0.320716      0.244421      0.863377     Biso  1.000000 N
   N          1.0     0.679266      0.244397      0.636621     Biso  1.000000 N
   N          1.0     0.227709      0.267571      0.325286     Biso  1.000000 N
   N          1.0     0.772288      0.267609      0.174717     Biso  1.000000 N
   N          1.0     0.727709      0.767569      0.325285     Biso  1.000000 N
   N          1.0     0.272289      0.767609      0.174717     Biso  1.000000 N
   N          1.0     0.772290      0.732391      0.674717     Biso  1.000000 N
   N          1.0     0.227709      0.732430      0.825285     Biso  1.000000 N
   N          1.0     0.272290      0.232393      0.674717     Biso  1.000000 N
   N          1.0     0.727709      0.232431      0.825287     Biso  1.000000 N
   N          1.0     0.334315      0.285168      0.392552     Biso  1.000000 N
   N          1.0     0.665681      0.285214      0.107445     Biso  1.000000 N
   N          1.0     0.834316      0.785164      0.392550     Biso  1.000000 N
   N          1.0     0.165682      0.785215      0.107445     Biso  1.000000 N
   N          1.0     0.665682      0.714785      0.607445     Biso  1.000000 N
   N          1.0     0.334316      0.714834      0.892551     Biso  1.000000 N
   N          1.0     0.165682      0.214787      0.607446     Biso  1.000000 N
   N          1.0     0.834315      0.214835      0.892552     Biso  1.000000 N
   N          1.0     0.355409      0.285326      0.252761     Biso  1.000000 N
   N          1.0     0.644571      0.285323      0.247211     Biso  1.000000 N
   N          1.0     0.855409      0.785324      0.252758     Biso  1.000000 N
   N          1.0     0.144572      0.785327      0.247212     Biso  1.000000 N
   N          1.0     0.644571      0.714676      0.747210     Biso  1.000000 N
   N          1.0     0.355411      0.714676      0.752761     Biso  1.000000 N
   N          1.0     0.144573      0.214677      0.747213     Biso  1.000000 N
   N          1.0     0.855409      0.214675      0.752761     Biso  1.000000 N
